/*--------------------------------*- C++ -*----------------------------------*\
  =========                 |
  \\      /  F ield         | OpenFOAM: The Open Source CFD Toolbox
   \\    /   O peration     | Website:  https://openfoam.org
    \\  /    A nd           | Version:  13
     \\/     M anipulation  |
\*---------------------------------------------------------------------------*/
FoamFile
{
    format      ascii;
    class       extendedFeatureEdgeMesh;
    location    "constant/extendedFeatureEdgeMesh";
    object      inlet.extendedFeatureEdgeMesh;
}
// * * * * * * * * * * * * * * * * * * * * * * * * * * * * * * * * * * * * * //

// points

118
(
(-19.5228 -18.6282 -15.8915)
(-19.387 -18.4079 -15.8141)
(-13.2737 -17.0552 -11.2311)
(-13.0907 -17.2263 -11.0668)
(-17.9413 -16.9678 -14.8962)
(-17.79 -16.802 -14.7874)
(-16.8096 -16.3107 -14.0778)
(-16.5986 -16.2498 -13.9213)
(-19.7953 -19.1418 -16.0374)
(-19.6641 -18.8808 -15.9689)
(-14.9719 -16.1965 -12.6625)
(-14.7429 -16.2515 -12.4773)
(-12.0651 -18.7496 -10.0734)
(-11.9608 -19.0063 -9.95933)
(-11.7173 -19.8205 -9.66536)
(-11.6598 -20.1032 -9.58435)
(-12.3075 -18.2621 -10.3245)
(-12.1809 -18.501 -10.1954)
(-13.6628 -16.7531 -11.5727)
(-13.4648 -16.8971 -11.4001)
(-15.4384 -16.1335 -13.0336)
(-15.2042 -16.157 -12.8483)
(-18.9473 -17.8106 -15.5492)
(-18.7826 -17.6267 -15.446)
(-11.6146 -20.3909 -9.51225)
(-11.5821 -20.6821 -9.44959)
(-20.3464 -20.8332 -16.2486)
(-20.2843 -20.5398 -16.238)
(-11.5624 -20.9767 -9.3964)
(-11.5555 -21.2731 -9.35298)
(-11.5614 -21.5713 -9.31932)
(-11.5796 -21.8695 -9.29521)
(-11.6104 -22.1677 -9.28083)
(-11.6533 -22.4643 -9.27612)
(-11.7086 -22.7591 -9.28128)
(-11.7761 -23.0508 -9.29635)
(-12.051 -23.9003 -9.40106)
(-12.1654 -24.172 -9.45518)
(-12.2908 -24.4371 -9.51868)
(-12.4265 -24.6944 -9.59116)
(-12.9306 -25.4638 -9.88447)
(-13.1278 -25.7053 -10.0069)
(-13.3413 -25.94 -10.1427)
(-13.5824 -26.1825 -10.2969)
(-13.8114 -26.4155 -10.4364)
(-20.4722 -22.3199 -16.1554)
(-20.4718 -22.0227 -16.1932)
(-20.434 -22.9085 -16.0499)
(-20.46 -22.6159 -16.1078)
(-20.3449 -23.4836 -15.9066)
(-20.3953 -23.1983 -15.9825)
(-20.4589 -21.7242 -16.2216)
(-20.4338 -21.4262 -16.2404)
(-20.3962 -21.1286 -16.2494)
(-20.2078 -24.0393 -15.7286)
(-20.2824 -23.7646 -15.8219)
(-20.0235 -24.569 -15.5171)
(-20.1214 -24.3081 -15.6267)
(-19.7936 -25.0665 -15.2742)
(-19.9142 -24.8225 -15.3994)
(-19.2074 -25.942 -14.7055)
(-19.3684 -25.7397 -14.8568)
(-18.8588 -26.3112 -14.3868)
(-19.0372 -26.133 -14.5486)
(-18.0691 -26.8896 -13.698)
(-18.2766 -26.7665 -13.8753)
(-17.6367 -27.092 -13.3356)
(-17.8553 -26.9983 -13.5176)
(-17.1862 -27.2346 -12.9667)
(-17.4132 -27.171 -13.1515)
(-16.7226 -27.3151 -12.5956)
(-16.9555 -27.2828 -12.7809)
(-16.2507 -27.3316 -12.2263)
(-16.4871 -27.3316 -12.4103)
(-15.7498 -27.2795 -11.8432)
(-16.0131 -27.3156 -12.0435)
(-15.2242 -27.1496 -11.4509)
(-15.4867 -27.2253 -11.6454)
(-14.6771 -26.9351 -11.049)
(-14.9565 -27.0546 -11.254)
(-19.5202 -25.5257 -15.0025)
(-19.662 -25.3015 -15.1416)
(-14.0678 -26.6453 -10.5958)
(-14.3786 -26.8048 -10.8249)
(-20.1236 -19.9646 -16.1869)
(-20.0255 -19.6843 -16.1467)
(-18.6203 -17.463 -15.3432)
(-18.4538 -17.3163 -15.2374)
(-11.7867 -19.5426 -9.75505)
(-11.8679 -19.2712 -9.85307)
(-12.445 -18.0327 -10.461)
(-12.7496 -17.6064 -10.7526)
(-12.5924 -17.8142 -10.6037)
(-12.9157 -17.4106 -10.907)
(-13.8681 -16.6233 -11.749)
(-14.2958 -16.4076 -12.1095)
(-14.079 -16.5082 -11.9279)
(-14.5171 -16.3221 -12.2926)
(-15.6748 -16.1264 -13.2185)
(-16.1494 -16.1599 -13.5833)
(-15.9118 -16.1351 -13.4017)
(-16.3862 -16.2 -13.7624)
(-17.0017 -16.3788 -14.2187)
(-17.4112 -16.5632 -14.5151)
(-17.2093 -16.4637 -14.3696)
(-18.2689 -17.216 -15.1182)
(-18.086 -17.1206 -14.997)
(-19.105 -18.0078 -15.6463)
(-19.244 -18.1951 -15.7303)
(-12.7457 -25.2095 -9.77332)
(-19.9158 -19.4096 -16.0967)
(-20.2102 -20.2503 -16.2176)
(-11.8559 -23.3389 -9.3214)
(-11.9476 -23.6222 -9.35633)
(-12.5723 -24.9436 -9.67262)
(-18.478 -26.6285 -14.0498)
(-18.672 -26.4769 -14.2202)
(-17.6082 -16.6751 -14.6566)
)

// edges

118
(
(0 1)
(2 3)
(4 5)
(6 7)
(8 9)
(10 11)
(12 13)
(14 15)
(16 17)
(18 19)
(20 21)
(22 23)
(24 25)
(26 27)
(28 29)
(30 31)
(32 33)
(34 35)
(36 37)
(38 39)
(40 41)
(42 43)
(43 44)
(45 46)
(47 48)
(49 50)
(51 52)
(53 26)
(54 55)
(56 57)
(58 59)
(60 61)
(62 63)
(64 65)
(66 67)
(68 69)
(70 71)
(72 73)
(74 75)
(76 77)
(78 79)
(80 81)
(44 82)
(82 83)
(84 85)
(86 87)
(88 14)
(15 24)
(13 89)
(17 12)
(90 16)
(91 92)
(3 93)
(19 2)
(94 18)
(95 96)
(11 97)
(21 10)
(98 20)
(99 100)
(7 101)
(102 6)
(103 104)
(105 106)
(23 86)
(107 22)
(1 108)
(109 40)
(9 0)
(85 110)
(25 28)
(27 111)
(29 30)
(31 32)
(33 34)
(35 112)
(113 36)
(37 38)
(39 114)
(115 116)
(41 42)
(48 45)
(50 47)
(55 49)
(46 51)
(52 53)
(57 54)
(59 56)
(81 58)
(61 80)
(63 60)
(116 62)
(65 115)
(67 64)
(69 66)
(71 68)
(73 70)
(75 72)
(77 74)
(79 76)
(83 78)
(114 109)
(111 84)
(108 107)
(87 105)
(117 103)
(104 102)
(101 99)
(100 98)
(97 95)
(96 94)
(93 91)
(92 90)
(112 113)
(89 88)
(5 117)
(106 4)
(110 8)
)

// concaveStart mixedStart nonFeatureStart
0 0 0
// internalStart flatStart openStart multipleStart
0 0 0 118
// normals

118
(
(0.588929 -0.0807806 -0.804137)
(0.626899 -0.0744076 -0.77554)
(0.622221 -0.0548792 -0.780916)
(0.606776 -0.0680286 -0.791957)
(0.586577 -0.0834091 -0.805587)
(0.617377 -0.0686287 -0.783668)
(0.633346 -0.0846218 -0.769228)
(0.635238 -0.0906565 -0.766977)
(0.631983 -0.081653 -0.770669)
(0.624724 -0.0724801 -0.777474)
(0.614678 -0.0681902 -0.785825)
(0.591151 -0.0786491 -0.802717)
(0.635923 -0.0938844 -0.766021)
(0.582747 -0.0942092 -0.807175)
(0.636305 -0.0973009 -0.765277)
(0.636359 -0.100777 -0.764782)
(0.636078 -0.104167 -0.764561)
(0.635545 -0.107672 -0.764519)
(0.633605 -0.114482 -0.765139)
(0.632334 -0.117722 -0.765699)
(0.628703 -0.124424 -0.767627)
(0.623581 -0.129571 -0.770947)
(0.615465 -0.141067 -0.775437)
(0.581645 -0.103643 -0.806813)
(0.581735 -0.107803 -0.806203)
(0.582114 -0.111311 -0.805452)
(0.581933 -0.09988 -0.80708)
(0.582412 -0.0960849 -0.807195)
(0.582843 -0.115097 -0.804392)
(0.583765 -0.118689 -0.8032)
(0.585246 -0.122033 -0.80162)
(0.588928 -0.128001 -0.797985)
(0.59125 -0.130322 -0.795889)
(0.596431 -0.134291 -0.791351)
(0.599259 -0.135564 -0.788994)
(0.6022 -0.136369 -0.786612)
(0.605114 -0.136985 -0.784265)
(0.608344 -0.136873 -0.781782)
(0.611417 -0.136634 -0.779423)
(0.614792 -0.135866 -0.776898)
(0.622567 -0.132807 -0.771215)
(0.587074 -0.125097 -0.799809)
(0.615339 -0.149644 -0.773928)
(0.631838 -0.134664 -0.763313)
(0.584089 -0.0884834 -0.806853)
(0.586228 -0.0843259 -0.805745)
(0.634856 -0.0890606 -0.76748)
(0.635422 -0.0922796 -0.766631)
(0.633909 -0.0861091 -0.768599)
(0.632773 -0.0829457 -0.769882)
(0.6313 -0.0803239 -0.771368)
(0.629568 -0.0778669 -0.773033)
(0.627781 -0.0755829 -0.774711)
(0.625757 -0.0734624 -0.776551)
(0.623563 -0.0716087 -0.778486)
(0.62114 -0.070231 -0.780546)
(0.618682 -0.0689417 -0.782611)
(0.616057 -0.0682127 -0.784742)
(0.613335 -0.0679184 -0.786897)
(0.610387 -0.0678218 -0.789194)
(0.607895 -0.0679093 -0.791108)
(0.605552 -0.0684162 -0.79286)
(0.605453 -0.068765 -0.792905)
(0.584845 -0.0984064 -0.805154)
(0.588865 -0.0789573 -0.804365)
(0.591602 -0.0781573 -0.802433)
(0.589885 -0.0797015 -0.803544)
(0.62975 -0.122518 -0.767075)
(0.588079 -0.0822922 -0.804606)
(0.585104 -0.0869087 -0.806288)
(0.635958 -0.0956097 -0.765778)
(0.583159 -0.0922867 -0.807099)
(0.635744 -0.0990132 -0.765524)
(0.635614 -0.102446 -0.76518)
(0.635748 -0.10584 -0.764606)
(0.635067 -0.109363 -0.764676)
(0.634148 -0.112772 -0.764944)
(0.633034 -0.116102 -0.765368)
(0.631529 -0.119228 -0.76613)
(0.593818 -0.132432 -0.793625)
(0.627425 -0.125934 -0.768426)
(0.581531 -0.105672 -0.806632)
(0.581704 -0.109754 -0.805962)
(0.582204 -0.113261 -0.805115)
(0.581584 -0.101772 -0.807095)
(0.582038 -0.0980078 -0.807234)
(0.583294 -0.116911 -0.803804)
(0.584431 -0.120423 -0.802458)
(0.586112 -0.12362 -0.800744)
(0.588012 -0.126573 -0.798888)
(0.590084 -0.129191 -0.796938)
(0.592462 -0.131489 -0.794795)
(0.595063 -0.133516 -0.792511)
(0.597945 -0.134693 -0.790139)
(0.600792 -0.1358 -0.787786)
(0.603747 -0.136426 -0.785416)
(0.606715 -0.136713 -0.783075)
(0.609893 -0.136403 -0.780657)
(0.613186 -0.136045 -0.778135)
(0.617742 -0.13504 -0.774699)
(0.631539 -0.132577 -0.763925)
(0.630703 -0.120883 -0.766552)
(0.584038 -0.0905546 -0.806659)
(0.590753 -0.0784178 -0.803032)
(0.573481 -0.0895616 -0.814308)
(0.606623 -0.0663297 -0.792218)
(0.604956 -0.0688996 -0.793272)
(0.60901 -0.0675226 -0.790283)
(0.611936 -0.0677903 -0.787997)
(0.619937 -0.0694829 -0.781569)
(0.622386 -0.070904 -0.779493)
(0.628783 -0.0765642 -0.773802)
(0.630514 -0.0790768 -0.772139)
(0.634766 -0.111146 -0.764669)
(0.634418 -0.0875359 -0.768017)
(0.612639 -0.0659212 -0.787609)
(0.61902 -0.0703821 -0.782215)
(0.585919 -0.0852139 -0.805877)
)

// normal volume types

118
(
0
0
0
0
0
0
0
0
0
0
0
0
0
0
0
0
0
0
0
0
0
0
0
0
0
0
0
0
0
0
0
0
0
0
0
0
0
0
0
0
0
0
0
0
0
0
0
0
0
0
0
0
0
0
0
0
0
0
0
0
0
0
0
0
0
0
0
0
0
0
0
0
0
0
0
0
0
0
0
0
0
0
0
0
0
0
0
0
0
0
0
0
0
0
0
0
0
0
0
0
0
0
0
0
0
0
0
0
0
0
0
0
0
0
0
0
0
0
)

// normalDirections

118
(
1(1)
1(1)
1(1)
1(1)
1(1)
1(1)
1(1)
1(1)
1(1)
1(1)
1(1)
1(1)
1(1)
1(1)
1(1)
1(1)
1(1)
1(1)
1(1)
1(1)
1(1)
1(1)
1(1)
1(1)
1(1)
1(1)
1(1)
1(1)
1(1)
1(1)
1(1)
1(1)
1(1)
1(1)
1(1)
1(1)
1(1)
1(1)
1(1)
1(1)
1(1)
1(1)
1(1)
1(1)
1(1)
1(1)
1(1)
1(1)
1(1)
1(1)
1(1)
1(1)
1(1)
1(1)
1(1)
1(1)
1(1)
1(1)
1(1)
1(1)
1(1)
1(1)
1(1)
1(1)
1(1)
1(1)
1(1)
1(1)
1(1)
1(1)
1(1)
1(1)
1(1)
1(1)
1(1)
1(1)
1(1)
1(1)
1(1)
1(1)
1(1)
1(1)
1(1)
1(1)
1(1)
1(1)
1(1)
1(1)
1(1)
1(1)
1(1)
1(1)
1(1)
1(1)
1(1)
1(1)
1(1)
1(1)
1(1)
1(1)
1(1)
1(1)
1(1)
1(1)
1(1)
1(1)
1(1)
1(1)
1(1)
1(1)
1(1)
1(1)
1(1)
1(1)
1(1)
1(1)
1(1)
1(1)
)

// edgeNormals

118
(
1(0)
1(1)
1(2)
1(3)
1(4)
1(5)
1(6)
1(7)
1(8)
1(9)
1(10)
1(11)
1(12)
1(13)
1(14)
1(15)
1(16)
1(17)
1(18)
1(19)
1(20)
1(21)
1(22)
1(23)
1(24)
1(25)
1(26)
1(27)
1(28)
1(29)
1(30)
1(31)
1(32)
1(33)
1(34)
1(35)
1(36)
1(37)
1(38)
1(39)
1(40)
1(41)
1(42)
1(43)
1(44)
1(45)
1(46)
1(47)
1(48)
1(49)
1(50)
1(51)
1(52)
1(53)
1(54)
1(55)
1(56)
1(57)
1(58)
1(59)
1(60)
1(61)
1(62)
1(63)
1(64)
1(65)
1(66)
1(67)
1(68)
1(69)
1(70)
1(71)
1(72)
1(73)
1(74)
1(75)
1(76)
1(77)
1(78)
1(79)
1(80)
1(81)
1(82)
1(83)
1(84)
1(85)
1(86)
1(87)
1(88)
1(89)
1(90)
1(91)
1(92)
1(93)
1(94)
1(95)
1(96)
1(97)
1(98)
1(99)
1(100)
1(101)
1(102)
1(103)
1(104)
1(105)
1(106)
1(107)
1(108)
1(109)
1(110)
1(111)
1(112)
1(113)
1(114)
1(115)
1(116)
1(117)
)

// featurePointNormals
0()
// featurePointEdges
0()
// regionEdges

118
(
0
1
2
3
4
5
6
7
8
9
10
11
12
13
14
15
16
17
18
19
20
21
22
23
24
25
26
27
28
29
30
31
32
33
34
35
36
37
38
39
40
41
42
43
44
45
46
47
48
49
50
51
52
53
54
55
56
57
58
59
60
61
62
63
64
65
66
67
68
69
70
71
72
73
74
75
76
77
78
79
80
81
82
83
84
85
86
87
88
89
90
91
92
93
94
95
96
97
98
99
100
101
102
103
104
105
106
107
108
109
110
111
112
113
114
115
116
117
)



// ************************************************************************* //
