/*--------------------------------*- C++ -*----------------------------------*\
  =========                 |
  \\      /  F ield         | OpenFOAM: The Open Source CFD Toolbox
   \\    /   O peration     | Website:  https://openfoam.org
    \\  /    A nd           | Version:  13
     \\/     M anipulation  |
\*---------------------------------------------------------------------------*/
FoamFile
{
    format      ascii;
    class       extendedFeatureEdgeMesh;
    location    "constant/extendedFeatureEdgeMesh";
    object      outlet2.extendedFeatureEdgeMesh;
}
// * * * * * * * * * * * * * * * * * * * * * * * * * * * * * * * * * * * * * //

// points

62
(
(-4.93423 -12.5889 34.5606)
(-4.74257 -12.6204 34.5497)
(-4.54673 -12.5959 34.5626)
(-2.85803 -10.5571 34.7747)
(-2.87708 -10.4093 34.7895)
(-2.92123 -10.2799 34.808)
(-2.98334 -10.1467 34.8285)
(-3.01017 -10.0076 34.829)
(-3.0706 -9.86534 34.8373)
(-6.56677 -10.6195 34.7397)
(-6.56624 -10.817 34.721)
(-6.54615 -11.0138 34.7025)
(-6.50677 -11.2074 34.6845)
(-6.44527 -11.395 34.6673)
(-6.36427 -11.575 34.6509)
(-6.26614 -11.7463 34.6353)
(-6.14979 -11.9059 34.6209)
(-6.01594 -12.0517 34.608)
(-5.8688 -12.1842 34.5965)
(-5.69028 -12.3124 34.5857)
(-5.49604 -12.4163 34.5773)
(-5.31158 -12.492 34.5715)
(-5.11569 -12.5497 34.5671)
(-4.351 -12.5633 34.5714)
(-4.15388 -12.5135 34.578)
(-3.9667 -12.4467 34.5857)
(-6.54275 -10.4235 34.7586)
(-6.49909 -10.2309 34.7772)
(-6.43686 -10.0435 34.7954)
(-6.35317 -9.86472 34.813)
(-6.25058 -9.69579 34.8297)
(-6.13187 -9.53767 34.8456)
(-3.77034 -12.348 34.5965)
(-5.99655 -9.39362 34.8602)
(-5.84531 -9.26599 34.8735)
(-3.60531 -12.2388 34.6081)
(-5.68216 -9.15382 34.8852)
(-5.13382 -8.93156 34.9104)
(-5.32445 -8.98595 34.9039)
(-4.93884 -8.89644 34.9152)
(-4.74101 -8.88422 34.9178)
(-4.54289 -8.89291 34.9185)
(-4.34664 -8.92084 34.9173)
(-4.15474 -8.97009 34.9141)
(-3.9695 -9.04065 34.9088)
(-3.45144 -12.1144 34.621)
(-3.3124 -11.974 34.6353)
(-3.19028 -11.8187 34.6509)
(-3.09378 -11.6693 34.6657)
(-3.01156 -11.5117 34.6813)
(-2.94659 -11.3463 34.6974)
(-2.90098 -11.1881 34.7127)
(-2.86846 -11.0305 34.7279)
(-2.85016 -10.8718 34.7432)
(-2.84789 -10.7129 34.7588)
(-3.15288 -9.72655 34.8497)
(-3.25012 -9.59158 34.8618)
(-3.36839 -9.45811 34.8736)
(-3.48596 -9.34627 34.8834)
(-3.7918 -9.1284 34.9017)
(-3.62457 -9.23412 34.893)
(-5.50885 -9.05856 34.8957)
)

// edges

62
(
(0 1)
(1 2)
(3 4)
(5 6)
(7 8)
(4 5)
(9 10)
(10 11)
(11 12)
(12 13)
(13 14)
(14 15)
(15 16)
(16 17)
(17 18)
(18 19)
(19 20)
(20 21)
(21 22)
(22 0)
(2 23)
(23 24)
(24 25)
(26 9)
(27 26)
(28 27)
(29 28)
(30 29)
(31 30)
(25 32)
(33 31)
(34 33)
(32 35)
(36 34)
(37 38)
(39 37)
(40 39)
(41 40)
(42 41)
(43 42)
(44 43)
(35 45)
(45 46)
(46 47)
(47 48)
(48 49)
(49 50)
(50 51)
(51 52)
(52 53)
(53 54)
(54 3)
(6 7)
(8 55)
(55 56)
(56 57)
(57 58)
(59 44)
(58 60)
(60 59)
(38 61)
(61 36)
)

// concaveStart mixedStart nonFeatureStart
0 0 0
// internalStart flatStart openStart multipleStart
0 0 0 62
// normals

62
(
(0.0281307 -0.170184 0.985011)
(-0.0430873 -0.175334 0.983566)
(0.0711998 -0.0901534 0.99338)
(0.00947771 -0.148056 0.988934)
(0.0494003 -0.0371606 0.998088)
(0.0924336 -0.109402 0.98969)
(-0.0830919 -0.0945859 0.992043)
(-0.0865028 -0.101779 0.991039)
(-0.0853237 -0.109339 0.990336)
(-0.0784914 -0.116752 0.990055)
(-0.0766907 -0.12458 0.989241)
(-0.0755813 -0.133462 0.988168)
(-0.0697193 -0.139762 0.987728)
(-0.065431 -0.147099 0.986955)
(-0.0615141 -0.153752 0.986193)
(-0.0516713 -0.155599 0.986468)
(-0.0447411 -0.163495 0.985529)
(-0.037561 -0.166926 0.985254)
(-0.0266495 -0.165278 0.985887)
(-0.00131926 -0.169477 0.985533)
(-0.0149845 -0.175524 0.984361)
(0.00876762 -0.165476 0.986175)
(0.0193472 -0.167901 0.985614)
(-0.0809706 -0.0855427 0.993039)
(-0.0837538 -0.0769618 0.99351)
(-0.0820597 -0.0693892 0.994209)
(-0.0753151 -0.0625967 0.995193)
(-0.070881 -0.0557287 0.995927)
(-0.0716639 -0.0460992 0.996363)
(0.027374 -0.16273 0.986291)
(-0.0674698 -0.0380556 0.996995)
(-0.0581931 -0.0342829 0.997717)
(0.0345081 -0.156508 0.987074)
(-0.0499879 -0.032261 0.998229)
(-0.0287075 -0.0203641 0.99938)
(-0.0216302 -0.0160687 0.999637)
(-0.0124325 -0.0134631 0.999832)
(-0.00395732 -0.0164698 0.999857)
(0.00360589 -0.016455 0.999858)
(0.012751 -0.0159835 0.999791)
(0.0208474 -0.0208193 0.999566)
(0.0417947 -0.154185 0.987158)
(0.0467728 -0.14701 0.988028)
(0.0538055 -0.141623 0.988457)
(0.0598062 -0.136666 0.98881)
(0.0608129 -0.129128 0.989761)
(0.0635218 -0.12164 0.99054)
(0.0695522 -0.116146 0.990794)
(0.0709535 -0.110239 0.991369)
(0.0683843 -0.103295 0.992297)
(0.0709037 -0.0987465 0.992583)
(0.0722764 -0.096648 0.992691)
(0.0288368 0.00183435 0.999582)
(0.068607 -0.0483355 0.996472)
(0.0578561 -0.0479412 0.997173)
(0.0535839 -0.0407484 0.997732)
(0.0460039 -0.0384586 0.998201)
(0.0272053 -0.0246673 0.999325)
(0.0433773 -0.0319804 0.998547)
(0.036303 -0.0255556 0.999014)
(-0.0371046 -0.0185192 0.99914)
(-0.0467688 -0.0240838 0.998615)
)

// normal volume types

62
(
0
0
0
0
0
0
0
0
0
0
0
0
0
0
0
0
0
0
0
0
0
0
0
0
0
0
0
0
0
0
0
0
0
0
0
0
0
0
0
0
0
0
0
0
0
0
0
0
0
0
0
0
0
0
0
0
0
0
0
0
0
0
)

// normalDirections

62
(
1(1)
1(1)
1(1)
1(1)
1(1)
1(1)
1(1)
1(1)
1(1)
1(1)
1(1)
1(1)
1(1)
1(1)
1(1)
1(1)
1(1)
1(1)
1(1)
1(1)
1(1)
1(1)
1(1)
1(1)
1(1)
1(1)
1(1)
1(1)
1(1)
1(1)
1(1)
1(1)
1(1)
1(1)
1(1)
1(1)
1(1)
1(1)
1(1)
1(1)
1(1)
1(1)
1(1)
1(1)
1(1)
1(1)
1(1)
1(1)
1(1)
1(1)
1(1)
1(1)
1(1)
1(1)
1(1)
1(1)
1(1)
1(1)
1(1)
1(1)
1(1)
1(1)
)

// edgeNormals

62
(
1(0)
1(1)
1(2)
1(3)
1(4)
1(5)
1(6)
1(7)
1(8)
1(9)
1(10)
1(11)
1(12)
1(13)
1(14)
1(15)
1(16)
1(17)
1(18)
1(19)
1(20)
1(21)
1(22)
1(23)
1(24)
1(25)
1(26)
1(27)
1(28)
1(29)
1(30)
1(31)
1(32)
1(33)
1(34)
1(35)
1(36)
1(37)
1(38)
1(39)
1(40)
1(41)
1(42)
1(43)
1(44)
1(45)
1(46)
1(47)
1(48)
1(49)
1(50)
1(51)
1(52)
1(53)
1(54)
1(55)
1(56)
1(57)
1(58)
1(59)
1(60)
1(61)
)

// featurePointNormals
0()
// featurePointEdges
0()
// regionEdges

62
(
0
1
2
3
4
5
6
7
8
9
10
11
12
13
14
15
16
17
18
19
20
21
22
23
24
25
26
27
28
29
30
31
32
33
34
35
36
37
38
39
40
41
42
43
44
45
46
47
48
49
50
51
52
53
54
55
56
57
58
59
60
61
)



// ************************************************************************* //
