/*--------------------------------*- C++ -*----------------------------------*\
  =========                 |
  \\      /  F ield         | OpenFOAM: The Open Source CFD Toolbox
   \\    /   O peration     | Website:  https://openfoam.org
    \\  /    A nd           | Version:  13
     \\/     M anipulation  |
\*---------------------------------------------------------------------------*/
FoamFile
{
    format      ascii;
    class       extendedFeatureEdgeMesh;
    location    "constant/extendedFeatureEdgeMesh";
    object      outlet4.extendedFeatureEdgeMesh;
}
// * * * * * * * * * * * * * * * * * * * * * * * * * * * * * * * * * * * * * //

// points

100
(
(2.28962 -4.05118 -73.022)
(2.06987 -4.08867 -73.0084)
(1.86584 -4.11147 -72.9986)
(2.72288 -3.93631 -73.0583)
(2.51885 -3.99805 -73.0394)
(3.09158 -3.78992 -73.1005)
(2.91906 -3.86441 -73.0794)
(3.4229 -3.61478 -73.1485)
(3.25952 -3.70668 -73.1235)
(3.76642 -3.38072 -73.2105)
(3.59784 -3.50279 -73.1784)
(4.08478 -3.10307 -73.2819)
(3.93085 -3.24503 -73.2456)
(4.2367 -2.94438 -73.3221)
(1.67476 -4.12259 -72.9918)
(1.46445 -4.12216 -72.9872)
(1.23178 -4.10704 -72.9855)
(0.999949 -4.07721 -72.9872)
(0.768312 -4.03217 -72.9926)
(0.532561 -3.97098 -73.0015)
(0.287567 -3.88857 -73.015)
(0.0359251 -3.79028 -73.0287)
(-0.674303 -3.36087 -73.1056)
(-0.87534 -3.17371 -73.1526)
(-1.05559 -2.99304 -73.1926)
(-1.21151 -2.81763 -73.2301)
(-1.35118 -2.63408 -73.2697)
(-1.48019 -2.43878 -73.3121)
(-1.68996 -2.04471 -73.3989)
(-1.7769 -1.83681 -73.4451)
(-1.84343 -1.63939 -73.4895)
(-1.90268 -1.41771 -73.5396)
(-1.97672 -0.961975 -73.6437)
(-1.99086 -0.707306 -73.7025)
(-1.96786 -0.251175 -73.8089)
(-1.93384 -0.0239868 -73.8623)
(-1.88229 0.2043 -73.9165)
(-1.80727 0.449249 -73.9751)
(4.50197 -2.60809 -73.406)
(4.37753 -2.77753 -73.3638)
(-1.50349 1.09926 -74.1326)
(-1.3721 1.30328 -74.1828)
(-1.22983 1.48926 -74.2292)
(-1.07717 1.66325 -74.273)
(4.73814 -2.20955 -73.5039)
(4.62685 -2.41182 -73.4545)
(4.969 -1.62836 -73.6438)
(4.90503 -1.82594 -73.5965)
(5.05592 -1.2496 -73.7336)
(5.02028 -1.43031 -73.6909)
(5.09992 -0.842651 -73.829)
(5.08373 -1.04713 -73.7812)
(5.09388 -0.425369 -73.9257)
(5.10282 -0.632217 -73.8779)
(5.07042 -0.208954 -73.9754)
(4.90462 0.460571 -74.1272)
(4.97588 0.240479 -74.0777)
(5.03227 0.0113983 -74.0257)
(4.81789 0.678741 -74.1758)
(4.71222 0.897919 -74.2243)
(4.5775 1.13261 -74.2759)
(4.28765 1.52892 -74.3619)
(4.43496 1.34349 -74.3218)
(-0.75153 1.97073 -74.3516)
(-0.572575 2.11066 -74.388)
(-0.398161 2.22888 -74.4194)
(-0.219769 2.33569 -74.4482)
(-0.0537047 2.42293 -74.4721)
(0.13594 2.50922 -74.4964)
(0.33107 2.5853 -74.5183)
(0.536095 2.65031 -74.5381)
(3.97212 1.85184 -74.4331)
(4.13085 1.70024 -74.399)
(3.81878 1.98993 -74.4621)
(3.48917 2.22331 -74.508)
(3.66039 2.10973 -74.4864)
(2.70871 2.5874 -74.5783)
(2.84327 2.50014 -74.575)
(2.38391 2.69244 -74.5893)
(2.55445 2.6467 -74.5836)
(0.959831 2.74594 -74.5696)
(1.16291 2.77409 -74.5807)
(2.00056 2.76274 -74.5966)
(2.19644 2.73271 -74.594)
(1.37518 2.79039 -74.5892)
(1.58622 2.79396 -74.5948)
(1.7875 2.78456 -74.597)
(3.32541 2.31631 -74.5276)
(0.741135 2.70341 -74.5548)
(2.98821 2.41141 -74.5676)
(3.15756 2.36948 -74.5487)
(-0.916411 1.82497 -74.3141)
(4.83074 -2.01205 -73.5517)
(-1.62106 0.887054 -74.0808)
(-1.72376 0.667679 -74.0275)
(-1.98644 -0.467804 -73.7582)
(-1.94583 -1.20183 -73.5887)
(-1.59338 -2.24127 -73.3554)
(-0.465637 -3.54593 -73.0547)
(-0.209542 -3.68785 -73.0361)
)

// edges

100
(
(0 1)
(1 2)
(3 4)
(5 6)
(7 8)
(9 10)
(11 12)
(13 11)
(14 15)
(16 17)
(18 19)
(20 21)
(22 23)
(24 25)
(26 27)
(28 29)
(30 31)
(32 33)
(34 35)
(36 37)
(38 39)
(40 41)
(42 43)
(44 45)
(46 47)
(48 49)
(50 51)
(52 53)
(54 52)
(55 56)
(56 57)
(58 55)
(59 58)
(60 59)
(61 62)
(63 64)
(65 66)
(67 68)
(69 70)
(71 72)
(73 71)
(74 75)
(76 77)
(78 79)
(80 81)
(82 83)
(84 85)
(86 82)
(87 74)
(85 86)
(81 84)
(88 80)
(83 78)
(89 90)
(75 73)
(70 88)
(68 69)
(66 67)
(64 65)
(91 63)
(43 91)
(72 61)
(62 60)
(57 54)
(53 50)
(51 48)
(49 46)
(47 92)
(92 44)
(41 42)
(93 40)
(94 93)
(37 94)
(45 38)
(35 36)
(95 34)
(33 95)
(96 32)
(31 96)
(29 30)
(97 28)
(27 97)
(25 26)
(23 24)
(98 22)
(21 99)
(19 20)
(17 18)
(15 16)
(2 14)
(39 13)
(12 9)
(10 7)
(8 5)
(6 3)
(4 0)
(99 98)
(77 89)
(90 87)
(79 76)
)

// concaveStart mixedStart nonFeatureStart
0 0 0
// internalStart flatStart openStart multipleStart
0 0 0 100
// normals

100
(
(-0.00993896 -0.28925 -0.957202)
(-0.0134137 -0.29159 -0.956449)
(-0.000797796 -0.289962 -0.957038)
(0.00577444 -0.285094 -0.958482)
(0.0132456 -0.284113 -0.958699)
(0.0196751 -0.279181 -0.960037)
(0.0254629 -0.273691 -0.961481)
(0.0269585 -0.269344 -0.962667)
(-0.0213333 -0.292627 -0.955989)
(-0.0305763 -0.292866 -0.955665)
(-0.0379698 -0.286435 -0.957347)
(-0.0581196 -0.28217 -0.957602)
(-0.0434307 -0.287016 -0.956941)
(-0.0712662 -0.26873 -0.960576)
(-0.0805464 -0.26216 -0.961657)
(-0.0862795 -0.25045 -0.964277)
(-0.0873663 -0.241924 -0.966354)
(-0.0905221 -0.228731 -0.969272)
(-0.0894647 -0.215265 -0.972449)
(-0.0902325 -0.205473 -0.974494)
(0.0350119 -0.265541 -0.963464)
(-0.0805534 -0.188723 -0.978721)
(-0.0761948 -0.180228 -0.980669)
(0.0397469 -0.25762 -0.965429)
(0.0415617 -0.245398 -0.968531)
(0.047427 -0.238751 -0.969922)
(0.047506 -0.23082 -0.971836)
(0.0476092 -0.222834 -0.973693)
(0.0471546 -0.218707 -0.974651)
(0.045291 -0.205346 -0.977641)
(0.0462127 -0.210118 -0.976583)
(0.0446891 -0.200385 -0.978698)
(0.0402957 -0.197354 -0.979504)
(0.0404531 -0.192248 -0.980512)
(0.0356403 -0.183799 -0.982318)
(-0.0659634 -0.171201 -0.983025)
(-0.0579486 -0.168341 -0.984024)
(-0.052101 -0.162867 -0.985271)
(-0.0435683 -0.161554 -0.985902)
(0.0332437 -0.185908 -0.982005)
(0.0252869 -0.178532 -0.983609)
(0.0123814 -0.168683 -0.985593)
(-0.063827 -0.135072 -0.988778)
(-0.0090142 -0.155838 -0.987741)
(-0.0318796 -0.157858 -0.986947)
(-0.0108266 -0.15644 -0.987628)
(-0.0231978 -0.156461 -0.987412)
(-0.0145491 -0.160007 -0.987009)
(0.0243657 -0.165129 -0.985971)
(-0.0183258 -0.156791 -0.987462)
(-0.0274702 -0.159605 -0.986799)
(-0.036187 -0.157045 -0.986928)
(-0.00860376 -0.156078 -0.987707)
(0.0590338 -0.202313 -0.97754)
(0.0188679 -0.174919 -0.984402)
(-0.0396295 -0.158805 -0.986514)
(-0.0482715 -0.160709 -0.985821)
(-0.0541157 -0.167158 -0.984444)
(-0.0627601 -0.168569 -0.98369)
(-0.0672279 -0.176523 -0.981998)
(-0.0719078 -0.177811 -0.981434)
(0.0336573 -0.182221 -0.982681)
(0.0362353 -0.189295 -0.981251)
(0.0483267 -0.214233 -0.975586)
(0.0490263 -0.226801 -0.972706)
(0.0463114 -0.23474 -0.970954)
(0.046038 -0.242272 -0.969116)
(0.0420665 -0.249812 -0.96738)
(0.0423393 -0.253764 -0.966339)
(-0.0777214 -0.185054 -0.97965)
(-0.0842148 -0.192307 -0.977715)
(-0.0843227 -0.197474 -0.976675)
(-0.0860061 -0.201454 -0.975715)
(0.0353067 -0.260606 -0.964799)
(-0.0900093 -0.210709 -0.973396)
(-0.0921853 -0.21943 -0.971263)
(-0.0914906 -0.223889 -0.970311)
(-0.0915505 -0.233669 -0.967997)
(-0.0889504 -0.23778 -0.967238)
(-0.0882461 -0.246728 -0.965059)
(-0.0812438 -0.25312 -0.964018)
(-0.0817402 -0.257919 -0.962703)
(-0.0760568 -0.265231 -0.96118)
(-0.0663389 -0.278377 -0.958178)
(-0.0536162 -0.320158 -0.945846)
(-0.0870273 -0.277672 -0.956726)
(-0.0442874 -0.288216 -0.956541)
(-0.0347696 -0.291493 -0.955941)
(-0.025866 -0.290859 -0.956416)
(-0.0170514 -0.293223 -0.955892)
(0.0323809 -0.268313 -0.962787)
(0.0236372 -0.277374 -0.960471)
(0.0153021 -0.280237 -0.959809)
(0.0100301 -0.285674 -0.958274)
(0.00206754 -0.286254 -0.958151)
(-0.00515567 -0.291233 -0.956638)
(-0.0843896 -0.278095 -0.956839)
(-0.0412679 -0.150306 -0.987778)
(0.0585417 -0.202376 -0.977557)
(-0.0170699 -0.133401 -0.990915)
)

// normal volume types

100
(
0
0
0
0
0
0
0
0
0
0
0
0
0
0
0
0
0
0
0
0
0
0
0
0
0
0
0
0
0
0
0
0
0
0
0
0
0
0
0
0
0
0
0
0
0
0
0
0
0
0
0
0
0
0
0
0
0
0
0
0
0
0
0
0
0
0
0
0
0
0
0
0
0
0
0
0
0
0
0
0
0
0
0
0
0
0
0
0
0
0
0
0
0
0
0
0
0
0
0
0
)

// normalDirections

100
(
1(1)
1(1)
1(1)
1(1)
1(1)
1(1)
1(1)
1(1)
1(1)
1(1)
1(1)
1(1)
1(1)
1(1)
1(1)
1(1)
1(1)
1(1)
1(1)
1(1)
1(1)
1(1)
1(1)
1(1)
1(1)
1(1)
1(1)
1(1)
1(1)
1(1)
1(1)
1(1)
1(1)
1(1)
1(1)
1(1)
1(1)
1(1)
1(1)
1(1)
1(1)
1(1)
1(1)
1(1)
1(1)
1(1)
1(1)
1(1)
1(1)
1(1)
1(1)
1(1)
1(1)
1(1)
1(1)
1(1)
1(1)
1(1)
1(1)
1(1)
1(1)
1(1)
1(1)
1(1)
1(1)
1(1)
1(1)
1(1)
1(1)
1(1)
1(1)
1(1)
1(1)
1(1)
1(1)
1(1)
1(1)
1(1)
1(1)
1(1)
1(1)
1(1)
1(1)
1(1)
1(1)
1(1)
1(1)
1(1)
1(1)
1(1)
1(1)
1(1)
1(1)
1(1)
1(1)
1(1)
1(1)
1(1)
1(1)
1(1)
)

// edgeNormals

100
(
1(0)
1(1)
1(2)
1(3)
1(4)
1(5)
1(6)
1(7)
1(8)
1(9)
1(10)
1(11)
1(12)
1(13)
1(14)
1(15)
1(16)
1(17)
1(18)
1(19)
1(20)
1(21)
1(22)
1(23)
1(24)
1(25)
1(26)
1(27)
1(28)
1(29)
1(30)
1(31)
1(32)
1(33)
1(34)
1(35)
1(36)
1(37)
1(38)
1(39)
1(40)
1(41)
1(42)
1(43)
1(44)
1(45)
1(46)
1(47)
1(48)
1(49)
1(50)
1(51)
1(52)
1(53)
1(54)
1(55)
1(56)
1(57)
1(58)
1(59)
1(60)
1(61)
1(62)
1(63)
1(64)
1(65)
1(66)
1(67)
1(68)
1(69)
1(70)
1(71)
1(72)
1(73)
1(74)
1(75)
1(76)
1(77)
1(78)
1(79)
1(80)
1(81)
1(82)
1(83)
1(84)
1(85)
1(86)
1(87)
1(88)
1(89)
1(90)
1(91)
1(92)
1(93)
1(94)
1(95)
1(96)
1(97)
1(98)
1(99)
)

// featurePointNormals
0()
// featurePointEdges
0()
// regionEdges

100
(
0
1
2
3
4
5
6
7
8
9
10
11
12
13
14
15
16
17
18
19
20
21
22
23
24
25
26
27
28
29
30
31
32
33
34
35
36
37
38
39
40
41
42
43
44
45
46
47
48
49
50
51
52
53
54
55
56
57
58
59
60
61
62
63
64
65
66
67
68
69
70
71
72
73
74
75
76
77
78
79
80
81
82
83
84
85
86
87
88
89
90
91
92
93
94
95
96
97
98
99
)



// ************************************************************************* //
