/*--------------------------------*- C++ -*----------------------------------*\
  =========                 |
  \\      /  F ield         | OpenFOAM: The Open Source CFD Toolbox
   \\    /   O peration     | Website:  https://openfoam.org
    \\  /    A nd           | Version:  13
     \\/     M anipulation  |
\*---------------------------------------------------------------------------*/
FoamFile
{
    format      ascii;
    class       extendedFeatureEdgeMesh;
    location    "constant/extendedFeatureEdgeMesh";
    object      outlet1.extendedFeatureEdgeMesh;
}
// * * * * * * * * * * * * * * * * * * * * * * * * * * * * * * * * * * * * * //

// points

69
(
(-15.1689 -14.9858 34.8511)
(-14.9915 -14.7165 34.8399)
(-14.8432 -14.4302 34.828)
(-15.3728 -15.2356 34.8616)
(-15.8551 -15.6619 34.8795)
(-15.6022 -15.462 34.8711)
(-16.4175 -15.9761 34.8928)
(-16.1281 -15.8337 34.8867)
(-17.0332 -16.1653 34.901)
(-16.7203 -16.0872 34.8976)
(-17.6429 -16.2205 34.9036)
(-17.3527 -16.2097 34.903)
(-18.2197 -16.1589 34.9014)
(-17.9328 -16.2034 34.9031)
(-18.7697 -15.9904 34.8947)
(-18.5011 -16.0871 34.8986)
(-19.0105 -15.8786 34.8902)
(-19.2511 -15.739 34.8846)
(-19.6669 -15.4187 34.8716)
(-19.4673 -15.5871 34.8784)
(-20.0332 -15.0118 34.855)
(-19.8677 -15.2139 34.8632)
(-20.1813 -14.7965 34.8461)
(-20.3061 -14.5782 34.8372)
(-20.5814 -13.7896 34.8047)
(-20.5117 -14.0713 34.8163)
(-20.6403 -13.2678 34.7831)
(-20.6218 -13.5286 34.7939)
(-14.7333 -14.1477 34.8161)
(-20.6357 -13.0066 34.7724)
(-14.6365 -13.869 34.8001)
(-20.6106 -12.7639 34.7623)
(-20.5699 -12.5414 34.7531)
(-20.5168 -12.3364 34.7445)
(-20.3831 -11.9726 34.7295)
(-20.4557 -12.1521 34.7369)
(-19.8702 -11.1831 34.6992)
(-19.9698 -11.366 34.7133)
(-20.0841 -11.529 34.7204)
(-19.4031 -10.7539 34.6784)
(-19.5721 -10.8883 34.6848)
(-19.7272 -11.0246 34.6911)
(-19.216 -10.6261 34.6728)
(-19.0122 -10.5094 34.6679)
(-18.5779 -10.3251 34.6601)
(-18.7993 -10.4088 34.6636)
(-14.5855 -13.0373 34.7708)
(-14.6162 -12.7346 34.7582)
(-14.6742 -12.4503 34.7464)
(-14.7701 -12.1427 34.7338)
(-14.8981 -11.8469 34.7216)
(-15.0567 -11.5664 34.71)
(-15.2443 -11.3043 34.6993)
(-15.4588 -11.0637 34.6894)
(-15.6976 -10.8471 34.6805)
(-15.9578 -10.6567 34.6727)
(-16.2367 -10.4951 34.6662)
(-16.5317 -10.3649 34.6609)
(-18.0861 -10.2042 34.6549)
(-18.345 -10.2573 34.6572)
(-16.8389 -10.2669 34.657)
(-17.1546 -10.2007 34.6544)
(-17.4755 -10.1674 34.6531)
(-17.7978 -10.171 34.6534)
(-20.2117 -11.6588 34.7189)
(-20.3027 -11.8063 34.723)
(-14.5647 -13.6097 34.7839)
(-14.5671 -13.3299 34.7788)
(-20.4163 -14.3415 34.8274)
)

// edges

69
(
(0 1)
(1 2)
(3 0)
(4 5)
(6 7)
(8 9)
(10 11)
(12 13)
(14 15)
(16 14)
(17 16)
(18 19)
(20 21)
(22 20)
(23 22)
(24 25)
(26 27)
(2 28)
(29 26)
(28 30)
(31 29)
(32 31)
(33 32)
(34 35)
(36 37)
(37 38)
(39 40)
(40 41)
(42 39)
(43 42)
(44 45)
(46 47)
(48 49)
(50 51)
(52 53)
(54 55)
(56 57)
(58 59)
(60 61)
(62 63)
(38 64)
(64 65)
(30 66)
(61 62)
(63 58)
(57 60)
(55 56)
(53 54)
(51 52)
(49 50)
(47 48)
(67 46)
(66 67)
(59 44)
(45 43)
(41 36)
(65 34)
(35 33)
(27 24)
(25 68)
(68 23)
(21 18)
(19 17)
(15 12)
(13 10)
(11 8)
(9 6)
(7 4)
(5 3)
)

// concaveStart mixedStart nonFeatureStart
0 0 0
// internalStart flatStart openStart multipleStart
0 0 0 69
// normals

69
(
(0.030267 0.0217696 0.999305)
(0.032009 0.0250219 0.999174)
(0.0285338 0.0185423 0.999421)
(0.0230922 0.012826 0.999651)
(0.0168186 0.00835297 0.999824)
(0.00943118 0.00577546 0.999939)
(0.00197202 0.00459754 0.999987)
(-0.00511081 0.00492649 0.999975)
(-0.011857 0.00682793 0.999906)
(-0.0148858 0.00815927 0.999856)
(-0.0169931 0.0110099 0.999795)
(-0.0224795 0.0140784 0.999648)
(-0.0271009 0.0186889 0.999458)
(-0.0277601 0.0218563 0.999376)
(-0.0301836 0.0238312 0.99926)
(-0.03347 0.032931 0.998897)
(-0.0339548 0.038818 0.998669)
(0.0315668 0.0296564 0.999062)
(-0.0330457 0.0418669 0.998577)
(0.0374361 0.0444022 0.998312)
(-0.0334967 0.0448265 0.998433)
(-0.0316466 0.0472565 0.998381)
(-0.0308996 0.0495129 0.998295)
(-0.0299416 0.0531115 0.99814)
(-0.0010907 0.0776242 0.996982)
(-0.00738326 0.048645 0.998789)
(-0.0163291 0.0681223 0.997543)
(-0.0184493 0.0667848 0.997597)
(-0.016454 0.0680883 0.997544)
(-0.0150965 0.0682308 0.997555)
(-0.0108419 0.0711111 0.997409)
(0.0340076 0.0448852 0.998413)
(0.0322125 0.0512233 0.998168)
(0.0288322 0.0573673 0.997937)
(0.0243901 0.0626568 0.997737)
(0.0190971 0.0668755 0.997579)
(0.0130806 0.0699585 0.997464)
(-0.00588564 0.0721511 0.997376)
(0.00686661 0.0718863 0.997389)
(-1.10433e-05 0.0725253 0.997367)
(-0.0450996 0.0329112 0.99844)
(-0.0309792 0.0465124 0.998437)
(0.0489844 0.0486592 0.997614)
(0.00359325 0.072268 0.997379)
(-0.00320938 0.0724279 0.997368)
(0.00999426 0.0711968 0.997412)
(0.016124 0.0684354 0.997525)
(0.0216392 0.0646791 0.997671)
(0.0264113 0.0598856 0.997856)
(0.0302205 0.0542186 0.998072)
(0.0327898 0.0479529 0.998311)
(0.0341226 0.0296763 0.998977)
(0.0388522 0.0184942 0.999074)
(-0.00833208 0.0712001 0.997427)
(-0.0127627 0.0690617 0.997531)
(-0.0173843 0.0668285 0.997613)
(-0.0302593 0.0536007 0.998104)
(-0.0309879 0.0517948 0.998177)
(-0.0335464 0.0360479 0.998787)
(-0.0323076 0.0297126 0.999036)
(-0.0307224 0.0267566 0.99917)
(-0.0251416 0.0161206 0.999554)
(-0.0205619 0.0113066 0.999725)
(-0.0084819 0.005975 0.999946)
(-0.00157392 0.00479233 0.999987)
(0.00565682 0.00482849 0.999972)
(0.0131298 0.00709915 0.999889)
(0.0197073 0.0109314 0.999746)
(0.0256995 0.0158926 0.999543)
)

// normal volume types

69
(
0
0
0
0
0
0
0
0
0
0
0
0
0
0
0
0
0
0
0
0
0
0
0
0
0
0
0
0
0
0
0
0
0
0
0
0
0
0
0
0
0
0
0
0
0
0
0
0
0
0
0
0
0
0
0
0
0
0
0
0
0
0
0
0
0
0
0
0
0
)

// normalDirections

69
(
1(1)
1(1)
1(1)
1(1)
1(1)
1(1)
1(1)
1(1)
1(1)
1(1)
1(1)
1(1)
1(1)
1(1)
1(1)
1(1)
1(1)
1(1)
1(1)
1(1)
1(1)
1(1)
1(1)
1(1)
1(1)
1(1)
1(1)
1(1)
1(1)
1(1)
1(1)
1(1)
1(1)
1(1)
1(1)
1(1)
1(1)
1(1)
1(1)
1(1)
1(1)
1(1)
1(1)
1(1)
1(1)
1(1)
1(1)
1(1)
1(1)
1(1)
1(1)
1(1)
1(1)
1(1)
1(1)
1(1)
1(1)
1(1)
1(1)
1(1)
1(1)
1(1)
1(1)
1(1)
1(1)
1(1)
1(1)
1(1)
1(1)
)

// edgeNormals

69
(
1(0)
1(1)
1(2)
1(3)
1(4)
1(5)
1(6)
1(7)
1(8)
1(9)
1(10)
1(11)
1(12)
1(13)
1(14)
1(15)
1(16)
1(17)
1(18)
1(19)
1(20)
1(21)
1(22)
1(23)
1(24)
1(25)
1(26)
1(27)
1(28)
1(29)
1(30)
1(31)
1(32)
1(33)
1(34)
1(35)
1(36)
1(37)
1(38)
1(39)
1(40)
1(41)
1(42)
1(43)
1(44)
1(45)
1(46)
1(47)
1(48)
1(49)
1(50)
1(51)
1(52)
1(53)
1(54)
1(55)
1(56)
1(57)
1(58)
1(59)
1(60)
1(61)
1(62)
1(63)
1(64)
1(65)
1(66)
1(67)
1(68)
)

// featurePointNormals
0()
// featurePointEdges
0()
// regionEdges

69
(
0
1
2
3
4
5
6
7
8
9
10
11
12
13
14
15
16
17
18
19
20
21
22
23
24
25
26
27
28
29
30
31
32
33
34
35
36
37
38
39
40
41
42
43
44
45
46
47
48
49
50
51
52
53
54
55
56
57
58
59
60
61
62
63
64
65
66
67
68
)



// ************************************************************************* //
