/*--------------------------------*- C++ -*----------------------------------*\
  =========                 |
  \\      /  F ield         | OpenFOAM: The Open Source CFD Toolbox
   \\    /   O peration     | Website:  https://openfoam.org
    \\  /    A nd           | Version:  13
     \\/     M anipulation  |
\*---------------------------------------------------------------------------*/
FoamFile
{
    format      ascii;
    class       extendedFeatureEdgeMesh;
    location    "constant/extendedFeatureEdgeMesh";
    object      wall_aorta.extendedFeatureEdgeMesh;
}
// * * * * * * * * * * * * * * * * * * * * * * * * * * * * * * * * * * * * * //

// points

416
(
(0.169252 -3.97717 34.7728)
(-0.0655706 -3.873 34.774)
(3.66039 2.10973 -74.4864)
(3.48917 2.22331 -74.508)
(3.08498 -2.98691 34.7462)
(2.93931 -3.19839 34.7483)
(2.83648 -0.193176 34.7485)
(2.96998 -0.309204 34.7392)
(3.32217 -0.973419 34.7357)
(3.37915 -1.17209 34.7356)
(3.43886 -1.58363 34.737)
(3.4417 -1.79417 34.7379)
(-0.209542 -3.68785 -73.0361)
(0.0359251 -3.79028 -73.0287)
(1.67476 -4.12259 -72.9918)
(1.86584 -4.11147 -72.9986)
(-15.4384 -16.1335 -13.0336)
(-15.6748 -16.1264 -13.2185)
(-15.9118 -16.1351 -13.4017)
(-16.1494 -16.1599 -13.5833)
(-1.68996 -2.04471 -73.3989)
(-1.59338 -2.24127 -73.3554)
(-1.05559 -2.99304 -73.1926)
(-0.87534 -3.17371 -73.1526)
(0.999949 -4.07721 -72.9872)
(1.23178 -4.10704 -72.9855)
(2.06987 -4.08867 -73.0084)
(2.28962 -4.05118 -73.022)
(5.09388 -0.425369 -73.9257)
(5.07042 -0.208954 -73.9754)
(4.13085 1.70024 -74.399)
(3.97212 1.85184 -74.4331)
(-20.1236 -19.9646 -16.1869)
(-20.2102 -20.2503 -16.2176)
(-19.387 -18.4079 -15.8141)
(-19.5228 -18.6282 -15.8915)
(-17.1862 -27.2346 -12.9667)
(-16.9555 -27.2828 -12.7809)
(-11.9608 -19.0063 -9.95933)
(-12.0651 -18.7496 -10.0734)
(-18.478 -26.6285 -14.0498)
(-18.2766 -26.7665 -13.8753)
(-18.8588 -26.3112 -14.3868)
(-18.672 -26.4769 -14.2202)
(2.49116 0.197037 34.7363)
(2.63419 0.0788269 34.7364)
(-14.3786 -26.8048 -10.8249)
(-14.0678 -26.6453 -10.5958)
(-17.4132 -27.171 -13.1515)
(-19.9158 -19.4096 -16.0967)
(-20.0255 -19.6843 -16.1467)
(-14.9565 -27.0546 -11.254)
(-14.6771 -26.9351 -11.049)
(3.37803 -2.27739 34.7407)
(3.30563 -2.52386 34.7424)
(-13.5824 -26.1825 -10.2969)
(-13.3413 -25.94 -10.1427)
(3.20791 -2.76134 34.7442)
(-20.4718 -22.0227 -16.1932)
(-20.4722 -22.3199 -16.1554)
(-20.4338 -21.4262 -16.2404)
(-20.4589 -21.7242 -16.2216)
(-20.3464 -20.8332 -16.2486)
(-20.3962 -21.1286 -16.2494)
(-20.2843 -20.5398 -16.238)
(-19.6641 -18.8808 -15.9689)
(-19.7953 -19.1418 -16.0374)
(-18.9473 -17.8106 -15.5492)
(-19.105 -18.0078 -15.6463)
(-17.6082 -16.6751 -14.6566)
(-17.79 -16.802 -14.7874)
(-17.9413 -16.9678 -14.8962)
(-14.9719 -16.1965 -12.6625)
(-15.2042 -16.157 -12.8483)
(2.74718 -0.0572968 34.7421)
(-13.8114 -26.4155 -10.4364)
(-15.4867 -27.2253 -11.6454)
(-15.2242 -27.1496 -11.4509)
(-16.0131 -27.3156 -12.0435)
(-15.7498 -27.2795 -11.8432)
(-16.7226 -27.3151 -12.5956)
(-19.2074 -25.942 -14.7055)
(-19.0372 -26.133 -14.5486)
(-19.7936 -25.0665 -15.2742)
(-19.662 -25.3015 -15.1416)
(-20.0235 -24.569 -15.5171)
(-19.9142 -24.8225 -15.3994)
(-16.3862 -16.2 -13.7624)
(-16.5986 -16.2498 -13.9213)
(-20.2078 -24.0393 -15.7286)
(-20.1214 -24.3081 -15.6267)
(-20.3953 -23.1983 -15.9825)
(-20.3449 -23.4836 -15.9066)
(-20.46 -22.6159 -16.1078)
(-20.434 -22.9085 -16.0499)
(1.37518 2.79039 -74.5892)
(1.16291 2.77409 -74.5807)
(0.959831 2.74594 -74.5696)
(0.741135 2.70341 -74.5548)
(0.33107 2.5853 -74.5183)
(0.13594 2.50922 -74.4964)
(-0.0537047 2.42293 -74.4721)
(-0.219769 2.33569 -74.4482)
(-0.398161 2.22888 -74.4194)
(-0.572575 2.11066 -74.388)
(-0.75153 1.97073 -74.3516)
(-0.916411 1.82497 -74.3141)
(-1.22983 1.48926 -74.2292)
(-1.3721 1.30328 -74.1828)
(-1.07717 1.66325 -74.273)
(-1.50349 1.09926 -74.1326)
(-1.62106 0.887054 -74.0808)
(-1.72376 0.667679 -74.0275)
(-13.0907 -17.2263 -11.0668)
(-13.2737 -17.0552 -11.2311)
(-1.88229 0.2043 -73.9165)
(-1.93384 -0.0239868 -73.8623)
(-1.96786 -0.251175 -73.8089)
(-1.98644 -0.467804 -73.7582)
(-1.80727 0.449249 -73.9751)
(-1.99086 -0.707306 -73.7025)
(-1.97672 -0.961975 -73.6437)
(-1.94583 -1.20183 -73.5887)
(-1.90268 -1.41771 -73.5396)
(-1.84343 -1.63939 -73.4895)
(-1.7769 -1.83681 -73.4451)
(-1.48019 -2.43878 -73.3121)
(-1.35118 -2.63408 -73.2697)
(-1.21151 -2.81763 -73.2301)
(-11.5614 -21.5713 -9.31932)
(-11.5555 -21.2731 -9.35298)
(2.38391 2.69244 -74.5893)
(2.19644 2.73271 -74.594)
(-11.7761 -23.0508 -9.29635)
(-11.7086 -22.7591 -9.28128)
(-11.6533 -22.4643 -9.27612)
(-11.6104 -22.1677 -9.28083)
(-11.5796 -21.8695 -9.29521)
(-11.5624 -20.9767 -9.3964)
(-11.5821 -20.6821 -9.44959)
(-11.6146 -20.3909 -9.51225)
(-12.1809 -18.501 -10.1954)
(2.98821 2.41141 -74.5676)
(2.84327 2.50014 -74.575)
(-18.7826 -17.6267 -15.446)
(-12.9157 -17.4106 -10.907)
(-13.1278 -25.7053 -10.0069)
(-12.9306 -25.4638 -9.88447)
(-16.2507 -27.3316 -12.2263)
(-16.4871 -27.3316 -12.4103)
(-20.2824 -23.7646 -15.8219)
(-12.3075 -18.2621 -10.3245)
(-12.445 -18.0327 -10.461)
(-12.5924 -17.8142 -10.6037)
(-12.7496 -17.6064 -10.7526)
(-13.4648 -16.8971 -11.4001)
(-14.5171 -16.3221 -12.2926)
(-14.7429 -16.2515 -12.4773)
(-11.7867 -19.5426 -9.75505)
(-11.8679 -19.2712 -9.85307)
(-0.604631 -3.52449 34.7693)
(-0.762501 -3.38518 34.7644)
(-16.8096 -16.3107 -14.0778)
(3.08405 -0.456894 34.7356)
(2.15894 -3.85539 34.7572)
(1.92575 -3.9631 34.7595)
(1.68288 -4.04688 34.7617)
(1.4326 -4.10345 34.7638)
(1.17724 -4.13129 34.7659)
(0.920385 -4.13319 34.7678)
(0.664569 -4.10944 34.7696)
(0.413363 -4.05714 34.7713)
(-0.440223 -3.63693 34.7755)
(-17.4112 -16.5632 -14.5151)
(-1.26467 -0.977188 34.7696)
(-1.17289 -0.737244 34.7678)
(-18.6203 -17.463 -15.3432)
(-12.051 -23.9003 -9.40106)
(-11.9476 -23.6222 -9.35633)
(-0.366996 0.24411 34.7575)
(-0.14993 0.381577 34.7552)
(0.0799541 0.496048 34.753)
(0.321571 0.583176 34.7508)
(-17.0017 -16.3788 -14.2187)
(-11.8559 -23.3389 -9.3214)
(3.42295 -2.02458 34.7392)
(-13.8681 -16.6233 -11.749)
(-14.079 -16.5082 -11.9279)
(0.825333 0.681183 34.7466)
(1.0816 0.692215 34.7447)
(0.570895 0.645279 34.7487)
(-0.568613 0.0848694 34.7597)
(-0.751678 -0.0953064 34.7618)
(-0.914678 -0.293884 34.764)
(-1.05535 -0.50885 34.7659)
(-1.3316 -1.22527 34.7712)
(-1.37092 -1.47911 34.7726)
(-1.38348 -1.73569 34.7738)
(-1.36789 -1.99216 34.7748)
(-1.3264 -2.24565 34.7756)
(-1.25736 -2.49316 34.7762)
(-1.17321 -2.70866 34.7765)
(-1.07834 -2.89713 34.7765)
(-0.976605 -3.06488 34.7758)
(-17.6367 -27.092 -13.3356)
(-12.2908 -24.4371 -9.51868)
(-12.1654 -24.172 -9.45518)
(-12.5723 -24.9436 -9.67262)
(-12.4265 -24.6944 -9.59116)
(-12.7457 -25.2095 -9.77332)
(-19.5202 -25.5257 -15.0025)
(-19.3684 -25.7397 -14.8568)
(-18.0691 -26.8896 -13.698)
(-17.8553 -26.9983 -13.5176)
(2.37945 -3.72368 34.755)
(2.77134 -3.39273 34.7505)
(2.58423 -3.56871 34.7527)
(3.25147 -0.779877 34.7361)
(3.17252 -0.61058 34.736)
(-11.6598 -20.1032 -9.58435)
(2.15845 0.410355 34.7379)
(2.33136 0.308685 34.737)
(-13.6628 -16.7531 -11.5727)
(1.96195 0.503723 34.7389)
(1.74422 0.58168 34.7402)
(1.51993 0.639252 34.7416)
(-18.4538 -17.3163 -15.2374)
(1.31213 0.673325 34.743)
(-18.2689 -17.216 -15.1182)
(-18.086 -17.1206 -14.997)
(-19.244 -18.1951 -15.7303)
(-0.266568 -3.75858 34.775)
(3.41809 -1.37631 34.7362)
(-14.2958 -16.4076 -12.1095)
(-11.7173 -19.8205 -9.66536)
(-17.2093 -16.4637 -14.3696)
(2.00056 2.76274 -74.5966)
(1.7875 2.78456 -74.597)
(1.58622 2.79396 -74.5948)
(2.70871 2.5874 -74.5783)
(3.81878 1.98993 -74.4621)
(4.28765 1.52892 -74.3619)
(4.5775 1.13261 -74.2759)
(4.43496 1.34349 -74.3218)
(4.97588 0.240479 -74.0777)
(4.90462 0.460571 -74.1272)
(5.09992 -0.842651 -73.829)
(5.10282 -0.632217 -73.8779)
(5.05592 -1.2496 -73.7336)
(5.08373 -1.04713 -73.7812)
(4.83074 -2.01205 -73.5517)
(4.90503 -1.82594 -73.5965)
(4.73814 -2.20955 -73.5039)
(4.50197 -2.60809 -73.406)
(4.62685 -2.41182 -73.4545)
(4.2367 -2.94438 -73.3221)
(4.37753 -2.77753 -73.3638)
(3.76642 -3.38072 -73.2105)
(3.93085 -3.24503 -73.2456)
(4.969 -1.62836 -73.6438)
(5.02028 -1.43031 -73.6909)
(3.4229 -3.61478 -73.1485)
(3.59784 -3.50279 -73.1784)
(3.09158 -3.78992 -73.1005)
(3.25952 -3.70668 -73.1235)
(2.72288 -3.93631 -73.0583)
(2.91906 -3.86441 -73.0794)
(2.51885 -3.99805 -73.0394)
(1.46445 -4.12216 -72.9872)
(0.287567 -3.88857 -73.015)
(0.532561 -3.97098 -73.0015)
(-0.674303 -3.36087 -73.1056)
(-0.465637 -3.54593 -73.0547)
(-5.8688 -12.1842 34.5965)
(-6.01594 -12.0517 34.608)
(0.536095 2.65031 -74.5381)
(-6.26614 -11.7463 34.6353)
(-6.36427 -11.575 34.6509)
(-0.870301 -3.22591 34.7718)
(0.768312 -4.03217 -72.9926)
(4.08478 -3.10307 -73.2819)
(5.03227 0.0113983 -74.0257)
(4.81789 0.678741 -74.1758)
(4.71222 0.897919 -74.2243)
(3.32541 2.31631 -74.5276)
(3.15756 2.36948 -74.5487)
(2.55445 2.6467 -74.5836)
(-6.35317 -9.86472 34.813)
(-6.25058 -9.69579 34.8297)
(-6.43686 -10.0435 34.7954)
(-6.54275 -10.4235 34.7586)
(-6.49909 -10.2309 34.7772)
(-6.54615 -11.0138 34.7025)
(-6.56624 -10.817 34.721)
(-4.74257 -12.6204 34.5497)
(-4.93423 -12.5889 34.5606)
(-4.54673 -12.5959 34.5626)
(-3.9667 -12.4467 34.5857)
(-4.15388 -12.5135 34.578)
(-3.77034 -12.348 34.5965)
(-2.87708 -10.4093 34.7895)
(-2.85803 -10.5571 34.7747)
(-2.98334 -10.1467 34.8285)
(-2.92123 -10.2799 34.808)
(-3.01017 -10.0076 34.829)
(-3.0706 -9.86534 34.8373)
(-5.32445 -8.98595 34.9039)
(-5.13382 -8.93156 34.9104)
(-2.85016 -10.8718 34.7432)
(-2.86846 -11.0305 34.7279)
(-2.90098 -11.1881 34.7127)
(-2.94659 -11.3463 34.6974)
(-6.44527 -11.395 34.6673)
(-6.50677 -11.2074 34.6845)
(-5.99655 -9.39362 34.8602)
(-5.84531 -9.26599 34.8735)
(-6.13187 -9.53767 34.8456)
(-2.84789 -10.7129 34.7588)
(-4.351 -12.5633 34.5714)
(-5.11569 -12.5497 34.5671)
(-5.31158 -12.492 34.5715)
(-3.19028 -11.8187 34.6509)
(-3.3124 -11.974 34.6353)
(-6.56677 -10.6195 34.7397)
(-3.45144 -12.1144 34.621)
(-3.60531 -12.2388 34.6081)
(-5.68216 -9.15382 34.8852)
(-5.50885 -9.05856 34.8957)
(-5.49604 -12.4163 34.5773)
(-5.69028 -12.3124 34.5857)
(-3.09378 -11.6693 34.6657)
(-3.01156 -11.5117 34.6813)
(-6.14979 -11.9059 34.6209)
(-3.15288 -9.72655 34.8497)
(-3.25012 -9.59158 34.8618)
(-3.36839 -9.45811 34.8736)
(-3.48596 -9.34627 34.8834)
(-3.62457 -9.23412 34.893)
(-3.7918 -9.1284 34.9017)
(-3.9695 -9.04065 34.9088)
(-4.15474 -8.97009 34.9141)
(-4.34664 -8.92084 34.9173)
(-4.54289 -8.89291 34.9185)
(-4.74101 -8.88422 34.9178)
(-4.93884 -8.89644 34.9152)
(-19.216 -10.6261 34.6728)
(-19.0122 -10.5094 34.6679)
(-19.7272 -11.0246 34.6911)
(-19.5721 -10.8883 34.6848)
(-19.9698 -11.366 34.7133)
(-19.8702 -11.1831 34.6992)
(-20.3831 -11.9726 34.7295)
(-20.3027 -11.8063 34.723)
(-20.4557 -12.1521 34.7369)
(-20.5699 -12.5414 34.7531)
(-20.5168 -12.3364 34.7445)
(-20.1813 -14.7965 34.8461)
(-20.3061 -14.5782 34.8372)
(-19.0105 -15.8786 34.8902)
(-19.2511 -15.739 34.8846)
(-15.1689 -14.9858 34.8511)
(-15.3728 -15.2356 34.8616)
(-14.9915 -14.7165 34.8399)
(-14.8432 -14.4302 34.828)
(-14.7333 -14.1477 34.8161)
(-14.6365 -13.869 34.8001)
(-16.5317 -10.3649 34.6609)
(-16.2367 -10.4951 34.6662)
(-16.4175 -15.9761 34.8928)
(-16.7203 -16.0872 34.8976)
(-20.6218 -13.5286 34.7939)
(-20.6403 -13.2678 34.7831)
(-20.6357 -13.0066 34.7724)
(-17.3527 -16.2097 34.903)
(-17.6429 -16.2205 34.9036)
(-17.7978 -10.171 34.6534)
(-17.4755 -10.1674 34.6531)
(-18.7993 -10.4088 34.6636)
(-18.5779 -10.3251 34.6601)
(-15.0567 -11.5664 34.71)
(-14.8981 -11.8469 34.7216)
(-15.4588 -11.0637 34.6894)
(-15.2443 -11.3043 34.6993)
(-17.1546 -10.2007 34.6544)
(-18.2197 -16.1589 34.9014)
(-18.5011 -16.0871 34.8986)
(-17.0332 -16.1653 34.901)
(-15.8551 -15.6619 34.8795)
(-16.1281 -15.8337 34.8867)
(-15.6022 -15.462 34.8711)
(-14.7701 -12.1427 34.7338)
(-14.6742 -12.4503 34.7464)
(-14.5671 -13.3299 34.7788)
(-14.5647 -13.6097 34.7839)
(-19.4031 -10.7539 34.6784)
(-20.5117 -14.0713 34.8163)
(-20.5814 -13.7896 34.8047)
(-18.7697 -15.9904 34.8947)
(-20.0332 -15.0118 34.855)
(-16.8389 -10.2669 34.657)
(-15.9578 -10.6567 34.6727)
(-15.6976 -10.8471 34.6805)
(-14.6162 -12.7346 34.7582)
(-14.5855 -13.0373 34.7708)
(-20.2117 -11.6588 34.7189)
(-20.0841 -11.529 34.7204)
(-17.9328 -16.2034 34.9031)
(-19.4673 -15.5871 34.8784)
(-19.6669 -15.4187 34.8716)
(-19.8677 -15.2139 34.8632)
(-20.4163 -14.3415 34.8274)
(-20.6106 -12.7639 34.7623)
(-18.0861 -10.2042 34.6549)
(-18.345 -10.2573 34.6572)
(-15.9275 -18.2825 12.6709)
(-15.9716 -18.3102 12.7145)
)

// edges

415
(
(414 415)
(0 1)
(2 3)
(4 5)
(6 7)
(8 9)
(10 11)
(12 13)
(14 15)
(16 17)
(18 19)
(20 21)
(22 23)
(24 25)
(26 27)
(28 29)
(30 31)
(32 33)
(34 35)
(36 37)
(38 39)
(40 41)
(42 43)
(44 45)
(17 18)
(46 47)
(48 36)
(49 50)
(51 52)
(53 54)
(55 56)
(54 57)
(58 59)
(60 61)
(62 63)
(33 64)
(65 66)
(67 68)
(69 70)
(70 71)
(72 73)
(45 74)
(47 75)
(76 77)
(78 79)
(37 80)
(43 40)
(81 82)
(83 84)
(85 86)
(87 88)
(89 90)
(91 92)
(93 94)
(95 96)
(97 98)
(99 100)
(101 102)
(103 104)
(105 106)
(107 108)
(106 109)
(110 111)
(111 112)
(113 114)
(115 116)
(117 118)
(112 119)
(118 120)
(121 122)
(122 123)
(124 125)
(21 126)
(127 128)
(129 130)
(131 132)
(133 134)
(135 136)
(134 135)
(137 129)
(130 138)
(139 140)
(138 139)
(39 141)
(59 93)
(61 58)
(142 143)
(63 60)
(144 67)
(145 113)
(56 146)
(146 147)
(77 51)
(79 76)
(148 78)
(80 149)
(92 150)
(151 152)
(153 154)
(114 155)
(156 157)
(158 159)
(160 161)
(88 162)
(7 163)
(164 165)
(166 167)
(168 169)
(170 171)
(172 160)
(173 69)
(174 175)
(176 144)
(177 178)
(179 180)
(181 182)
(141 151)
(152 153)
(162 183)
(184 133)
(11 185)
(186 187)
(64 62)
(188 189)
(190 188)
(182 190)
(180 181)
(191 179)
(192 191)
(193 192)
(194 193)
(175 194)
(195 174)
(196 195)
(197 196)
(198 197)
(199 198)
(200 199)
(201 200)
(202 201)
(203 202)
(19 87)
(171 0)
(169 170)
(167 168)
(204 48)
(205 206)
(207 208)
(147 209)
(210 211)
(165 166)
(94 91)
(150 89)
(90 85)
(86 83)
(84 210)
(211 81)
(82 42)
(41 212)
(213 204)
(214 164)
(215 216)
(209 207)
(206 177)
(217 8)
(218 217)
(140 219)
(220 221)
(222 186)
(223 220)
(224 223)
(225 224)
(226 176)
(227 225)
(228 226)
(229 228)
(230 34)
(189 227)
(35 65)
(66 49)
(50 32)
(231 172)
(57 4)
(1 231)
(212 213)
(9 232)
(187 233)
(178 184)
(157 72)
(234 158)
(235 173)
(183 235)
(52 46)
(136 137)
(155 222)
(154 145)
(219 234)
(232 10)
(75 55)
(236 237)
(237 238)
(143 239)
(240 2)
(241 30)
(242 243)
(244 245)
(246 247)
(248 249)
(250 251)
(252 250)
(253 254)
(255 256)
(257 258)
(259 260)
(261 262)
(263 264)
(265 266)
(27 267)
(25 268)
(269 270)
(271 272)
(128 22)
(125 20)
(273 274)
(109 107)
(98 275)
(163 218)
(276 277)
(5 215)
(216 214)
(221 44)
(74 6)
(185 53)
(161 278)
(278 203)
(233 156)
(238 95)
(96 97)
(275 99)
(100 101)
(102 103)
(104 105)
(108 110)
(119 115)
(116 117)
(120 121)
(123 124)
(126 127)
(23 271)
(272 12)
(13 269)
(270 279)
(279 24)
(268 14)
(15 26)
(267 265)
(266 263)
(264 261)
(262 257)
(258 280)
(280 255)
(256 253)
(254 252)
(251 259)
(260 248)
(249 246)
(247 28)
(29 281)
(281 244)
(245 282)
(282 283)
(283 242)
(243 241)
(31 240)
(3 284)
(285 142)
(286 131)
(132 236)
(287 288)
(289 287)
(290 291)
(291 289)
(292 293)
(159 38)
(294 295)
(296 294)
(297 298)
(299 297)
(300 301)
(302 303)
(304 302)
(305 304)
(68 230)
(306 307)
(308 309)
(310 311)
(312 313)
(314 315)
(316 314)
(309 310)
(317 308)
(277 312)
(71 229)
(298 318)
(284 285)
(239 286)
(73 16)
(288 316)
(319 320)
(149 148)
(208 205)
(321 322)
(318 296)
(323 290)
(324 325)
(315 326)
(327 306)
(328 329)
(313 292)
(325 299)
(322 324)
(330 321)
(331 330)
(311 331)
(326 327)
(293 323)
(332 276)
(274 332)
(329 273)
(320 328)
(295 319)
(301 317)
(303 300)
(333 305)
(334 333)
(335 334)
(336 335)
(337 336)
(338 337)
(339 338)
(340 339)
(341 340)
(342 341)
(343 342)
(344 343)
(307 344)
(345 346)
(347 348)
(349 350)
(351 352)
(353 351)
(354 355)
(356 357)
(358 359)
(360 361)
(362 360)
(363 362)
(364 363)
(365 364)
(366 367)
(368 369)
(370 371)
(371 372)
(373 374)
(375 376)
(377 378)
(379 380)
(381 382)
(376 383)
(384 385)
(350 347)
(386 373)
(387 388)
(361 389)
(369 386)
(390 391)
(392 393)
(394 345)
(393 365)
(395 396)
(397 358)
(398 356)
(399 366)
(367 400)
(401 381)
(400 401)
(382 379)
(380 390)
(388 368)
(391 402)
(403 392)
(404 405)
(405 349)
(383 399)
(402 403)
(374 406)
(385 397)
(359 407)
(407 408)
(408 409)
(357 410)
(410 395)
(355 353)
(352 404)
(396 370)
(372 411)
(406 384)
(411 354)
(409 398)
(389 387)
(412 375)
(413 412)
(378 413)
(346 377)
(348 394)
)

// concaveStart mixedStart nonFeatureStart
0 0 0
// internalStart flatStart openStart multipleStart
1 1 1 415
// normals

416
(
(-0.187892 -0.434254 0.880976)
(0.322002 0.315737 -0.892538)
(0.443836 -0.297337 0.845341)
(0.309579 0.283073 0.907761)
(0.452806 0.129294 0.882185)
(0.494944 0.010747 0.868858)
(-0.271888 -0.699311 -0.661091)
(0.0201962 -0.751357 -0.659586)
(0.61033 0.169043 -0.773901)
(0.583909 0.188887 -0.789539)
(-0.552619 -0.429475 -0.714257)
(-0.44079 -0.589644 -0.676774)
(-0.0895923 -0.735121 -0.67199)
(0.0908018 -0.7641 -0.638676)
(0.624386 -0.109892 -0.773347)
(0.456879 0.289314 -0.841165)
(0.34671 -0.00456239 -0.937961)
(0.396219 0.0769457 -0.914926)
(0.529207 -0.383298 -0.756983)
(0.735023 -0.00279016 -0.678036)
(0.446934 -0.374778 -0.812275)
(0.42955 -0.352046 -0.831595)
(0.276464 0.335086 0.900714)
(0.601188 0.151713 -0.784574)
(0.667143 -0.37677 -0.642623)
(0.517353 -0.38074 -0.766409)
(0.344792 0.0330574 -0.938097)
(0.64704 -0.361406 -0.67136)
(0.519029 -0.146646 0.842083)
(0.709583 -0.299865 -0.637631)
(0.450886 -0.178767 0.874497)
(0.355887 -0.118647 -0.926967)
(0.351242 -0.088266 -0.932115)
(0.358882 -0.0581085 -0.931572)
(0.336154 -0.0195192 -0.941605)
(0.390797 0.0449139 -0.919381)
(0.438788 0.0891584 -0.894157)
(0.527933 0.111555 -0.841928)
(0.50036 0.107587 -0.859107)
(0.632832 0.137046 -0.762064)
(0.333188 0.313652 0.889161)
(0.693416 -0.328905 -0.641089)
(0.620489 -0.35492 -0.699303)
(0.594351 -0.367343 -0.715406)
(0.540553 -0.387474 -0.746771)
(0.442885 -0.357663 -0.82215)
(0.397738 -0.344521 -0.850359)
(0.379954 -0.284003 -0.880328)
(0.337653 -0.272594 -0.900934)
(0.560423 0.185889 -0.807076)
(0.332069 -0.23887 -0.912508)
(0.353635 -0.181518 -0.917602)
(0.351845 -0.15142 -0.92373)
(-0.070587 0.453615 -0.888398)
(-0.14494 0.43667 -0.887869)
(-0.24624 0.37343 -0.89438)
(-0.309833 0.346858 -0.885265)
(-0.368591 0.311218 -0.875948)
(-0.431826 0.266855 -0.861577)
(-0.534593 0.204284 -0.820048)
(-0.46699 0.248685 -0.848573)
(-0.555703 0.106339 -0.824552)
(-0.610633 0.0951456 -0.786177)
(0.698942 0.0632782 -0.712373)
(-0.594619 -0.0560834 -0.802049)
(-0.621558 -0.127596 -0.772907)
(-0.582935 0.0278388 -0.812042)
(-0.636378 -0.163507 -0.753849)
(-0.61193 -0.250748 -0.750111)
(-0.656039 -0.289649 -0.696933)
(-0.58831 -0.360979 -0.723592)
(-0.528154 -0.459274 -0.714227)
(-0.481006 -0.518537 -0.706932)
(0.764375 -0.0872532 -0.638841)
(0.119238 0.4512 -0.884421)
(0.750098 -0.140307 -0.646271)
(0.76306 -0.120483 -0.634999)
(0.757791 -0.130918 -0.639229)
(0.763951 -0.0983168 -0.637741)
(0.756706 -0.0774924 -0.649146)
(0.76836 -0.0515511 -0.637938)
(0.769734 -0.0630678 -0.635242)
(0.743847 0.0187231 -0.668088)
(0.332273 -0.13633 -0.933279)
(0.322918 -0.103346 -0.940768)
(0.214529 0.271699 -0.938167)
(0.32356 -0.0694694 -0.943654)
(0.435374 0.111726 -0.89329)
(0.726096 0.0996917 -0.680328)
(0.717175 -0.283869 -0.636458)
(0.718778 -0.260365 -0.644646)
(0.632404 -0.354248 -0.688893)
(0.606798 -0.36174 -0.707771)
(0.582104 -0.369861 -0.724126)
(0.555692 -0.379282 -0.739832)
(0.337622 -0.202123 -0.919324)
(0.738812 0.0429074 -0.672544)
(0.726705 0.0591599 -0.684398)
(0.698876 0.0859562 -0.710059)
(0.650305 0.115462 -0.750847)
(0.765683 -0.00317702 -0.64321)
(-0.405745 -0.431509 0.805711)
(0.557719 0.159708 -0.81452)
(0.385209 0.276136 0.880547)
(0.202798 -0.420629 0.884276)
(0.121877 -0.506801 0.853404)
(0.0103995 -0.566814 0.82378)
(-0.11642 -0.58435 0.803107)
(-0.340053 -0.451481 0.824942)
(0.535244 0.115581 -0.836753)
(-0.520326 0.205112 0.828969)
(0.447683 0.112817 -0.887047)
(0.748049 -0.175204 -0.640099)
(-0.304062 0.493424 0.814911)
(-0.169975 0.49281 0.853374)
(0.72976 0.0172859 -0.683485)
(0.707769 0.0160726 -0.706262)
(0.536393 0.188497 -0.822649)
(0.786391 -0.166007 -0.595005)
(0.524488 -0.0381313 0.850564)
(0.673033 0.0930713 -0.733733)
(0.347684 -0.0397789 -0.936768)
(-0.0125571 0.444678 0.895603)
(-0.0581797 0.464135 0.883852)
(-0.109925 0.471516 0.87498)
(-0.227288 0.472787 0.851359)
(-0.363966 0.471979 0.802972)
(-0.357656 0.373682 0.85583)
(-0.399419 0.336933 0.852608)
(-0.46301 0.310673 0.830123)
(-0.466376 0.247067 0.849383)
(-0.535581 0.149818 0.831088)
(-0.634946 0.102541 0.765721)
(-0.539038 0.0304546 0.841731)
(-0.61883 -0.0345322 0.784766)
(-0.597476 -0.0952298 0.796212)
(-0.528014 -0.14536 0.836703)
(-0.472804 -0.183594 0.861829)
(-0.507045 -0.255075 0.823312)
(-0.455297 -0.27977 0.845242)
(0.58118 0.14399 -0.800935)
(-0.168782 -0.530578 0.830662)
(-0.0462974 -0.561397 0.826251)
(0.0659374 -0.543006 0.837136)
(0.505181 -0.378231 -0.775715)
(0.746522 -0.201222 -0.634204)
(0.741002 -0.227187 -0.631903)
(0.716276 -0.233263 -0.657676)
(0.380321 -0.320675 -0.867481)
(0.192167 -0.535263 0.822536)
(0.318411 -0.174187 -0.931812)
(0.339079 -0.218842 -0.91495)
(0.339583 -0.253388 -0.905802)
(0.382195 -0.265257 -0.885193)
(0.367935 -0.311043 -0.876285)
(0.376939 -0.343279 -0.860277)
(0.426132 -0.335717 -0.840063)
(0.474308 -0.358511 -0.804053)
(0.501629 -0.359237 -0.786967)
(0.285599 -0.463798 0.838644)
(0.459143 -0.478683 0.748365)
(0.723384 -0.224285 -0.653002)
(0.749139 -0.189097 -0.634848)
(0.470632 0.169982 0.865801)
(0.421611 0.197355 0.885039)
(0.76204 -0.0421945 -0.646153)
(0.251749 0.420624 0.871606)
(0.690096 0.122073 -0.713349)
(0.218562 0.450083 0.865826)
(0.158013 0.426677 0.890493)
(0.136218 0.509872 0.849397)
(0.463718 0.107978 -0.879378)
(0.0798034 0.450044 0.889434)
(0.487324 0.127983 -0.863791)
(0.516829 0.0906149 -0.85128)
(0.412645 0.080333 -0.907343)
(0.0494957 0.529088 0.847122)
(0.396257 0.0591427 -0.916233)
(0.382632 0.0321985 -0.92334)
(0.37679 0.00125221 -0.926298)
(-0.316181 -0.455288 0.832311)
(0.399037 -0.20958 0.892662)
(-0.268648 -0.478865 0.835773)
(0.482465 -0.368895 -0.794446)
(0.523094 0.102187 0.846127)
(0.668051 0.111902 -0.735654)
(0.750228 -0.163824 -0.640562)
(0.641331 0.116136 -0.758424)
(0.752505 -0.0243739 -0.658136)
(0.524945 0.158124 -0.836319)
(0.53047 0.176734 -0.829076)
(0.655538 -0.356389 -0.665775)
(0.757727 -0.109163 -0.643376)
(0.682166 0.0655347 -0.728254)
(0.712634 0.0530561 -0.699527)
(0.760849 -0.0310914 -0.648184)
(0.573585 0.0606074 0.816901)
(0.696194 -0.29207 -0.655751)
(0.0503993 0.476151 -0.877918)
(0.0108307 0.445556 -0.895188)
(0.227441 0.316568 -0.920899)
(0.329619 0.251005 -0.910136)
(0.426962 0.199575 -0.881971)
(0.498623 0.151068 -0.853554)
(0.55823 -0.00596947 -0.829665)
(0.6244 -0.185024 -0.758875)
(0.579013 -0.261203 -0.772345)
(0.547565 -0.396106 -0.73707)
(0.534007 -0.427008 -0.729726)
(0.484308 -0.487458 -0.726519)
(0.474529 -0.56868 -0.671882)
(0.367748 -0.62414 -0.689355)
(0.575168 -0.327146 -0.749771)
(0.295371 -0.648732 -0.701358)
(0.24907 -0.690618 -0.678978)
(0.187134 -0.709547 -0.679355)
(0.121656 -0.741195 -0.660174)
(-0.0533387 -0.74639 -0.663368)
(-0.203021 -0.713323 -0.670785)
(-0.417387 -0.64609 -0.639027)
(-0.472489 -0.564662 -0.676691)
(-0.587518 -0.401835 -0.70239)
(-0.435002 -0.544957 0.716795)
(-0.492294 0.219737 -0.842237)
(-0.183194 0.427564 -0.885228)
(0.434114 0.252183 0.86484)
(-0.580743 -0.397582 0.710398)
(0.354289 -0.29639 0.886923)
(0.341328 -0.438854 0.831205)
(0.277836 0.392509 0.87678)
(0.346661 0.270392 0.898173)
(0.522747 -0.0878132 0.847953)
(-0.552722 -0.4078 0.726772)
(-0.508599 -0.355084 0.784374)
(0.658875 0.111908 -0.743882)
(-0.031021 0.463464 -0.885572)
(-0.109571 0.440201 -0.891189)
(-0.209853 0.38987 -0.89664)
(-0.27719 0.35822 -0.891541)
(-0.338475 0.327646 -0.88209)
(-0.397233 0.280907 -0.873669)
(-0.525851 0.132086 -0.840258)
(-0.587491 -0.0136281 -0.809116)
(-0.604999 -0.0952869 -0.790504)
(-0.603409 -0.210987 -0.769014)
(-0.612379 -0.326517 -0.719985)
(-0.503576 -0.487622 -0.713187)
(-0.430897 -0.626076 -0.64989)
(-0.367316 -0.737356 -0.566908)
(-0.241116 -0.709563 -0.662106)
(-0.163604 -0.727838 -0.665947)
(-0.127746 -0.735384 -0.665501)
(-0.0158673 -0.750052 -0.661189)
(0.0525315 -0.752642 -0.656331)
(0.161622 -0.735355 -0.658127)
(0.218245 -0.69861 -0.681405)
(0.272149 -0.671203 -0.689508)
(0.351579 -0.659857 -0.664064)
(0.389635 -0.601088 -0.697766)
(0.413018 -0.57422 -0.706886)
(0.460872 -0.517896 -0.72068)
(0.499324 -0.454823 -0.737436)
(0.551344 -0.358867 -0.753149)
(0.576798 -0.294013 -0.762142)
(0.576968 -0.228858 -0.784048)
(0.624562 -0.150028 -0.766429)
(0.579935 -0.0844757 -0.810271)
(0.563055 -0.0485205 -0.824994)
(0.575076 0.0465532 -0.816774)
(0.55906 0.0870462 -0.824545)
(0.528793 0.118864 -0.840386)
(0.483733 0.200332 -0.85198)
(0.388465 0.244774 -0.888358)
(0.304173 0.348527 -0.886571)
(0.178262 0.297032 -0.93808)
(0.148544 0.444469 -0.883392)
(0.0766528 0.421515 -0.903576)
(-0.534828 0.244582 0.808789)
(-0.55444 0.179653 0.812602)
(-0.701855 0.0908945 0.706497)
(-0.633454 0.136245 0.761691)
(-0.718525 -0.137301 0.681814)
(0.764279 0.00927233 -0.644819)
(-0.0859676 -0.75011 0.655701)
(0.0561624 -0.779623 0.623726)
(0.213761 -0.679874 0.701483)
(0.264185 -0.607822 0.748838)
(0.701245 0.0190987 0.712665)
(0.585789 0.150333 0.796399)
(0.59542 0.111878 0.795587)
(0.652113 0.235086 0.720752)
(0.387361 0.12223 -0.91379)
(-0.17912 0.527339 0.83056)
(0.681371 -0.147456 0.716931)
(0.679657 -0.262339 0.685014)
(-0.609116 -0.268335 0.746307)
(-0.405345 0.395033 0.824405)
(-0.479297 0.369209 0.796216)
(0.694438 -0.20971 0.688315)
(0.731633 -0.0771518 0.677319)
(-0.606042 -0.338194 0.719956)
(0.527788 0.0589616 -0.847327)
(0.142087 -0.660449 0.737305)
(0.218496 0.325451 -0.919968)
(0.197663 0.435342 -0.878298)
(0.622735 0.143512 -0.769159)
(-0.493749 0.288456 0.820369)
(-0.181746 -0.671061 0.71878)
(0.569273 -0.375218 -0.731532)
(0.739827 -0.210028 -0.639175)
(0.507066 -0.471249 0.721671)
(0.08152 -0.684452 0.724486)
(-0.683414 0.0136025 0.729904)
(0.383161 -0.550876 0.741433)
(-0.379471 0.468025 0.798094)
(-0.243196 0.525573 0.815248)
(-0.304248 -0.626996 0.717153)
(-0.675893 -0.203264 0.708415)
(0.344287 -0.596781 0.724788)
(0.45261 -0.521979 0.722968)
(0.524781 -0.412723 0.744489)
(0.544981 -0.358866 0.757767)
(0.595698 -0.306557 0.742406)
(-0.329824 0.513448 0.792204)
(-0.663417 -0.0726266 0.744717)
(-0.531213 -0.451746 0.716755)
(-0.505276 -0.524454 0.685306)
(-0.388398 -0.600278 0.699152)
(-0.242749 -0.646642 0.723137)
(-0.139269 -0.752604 0.643577)
(0.699455 -0.0274126 0.71415)
(0.640638 0.110389 0.759867)
(0.665891 0.335247 0.666482)
(0.610825 0.377555 0.695949)
(0.543211 0.416899 0.728778)
(0.523945 0.490154 0.696585)
(0.480067 0.533627 0.69626)
(0.375572 0.531058 0.759554)
(0.298763 0.542327 0.785253)
(0.237018 0.562382 0.79218)
(0.15909 0.566726 0.808401)
(0.0913371 0.608984 0.787906)
(0.0227054 0.577344 0.816185)
(-0.0471621 0.590342 0.805775)
(-0.120717 0.558307 0.820805)
(-0.144705 0.292408 0.945282)
(-0.170355 0.237778 0.956264)
(-0.235266 0.201625 0.950788)
(-0.329172 0.195232 0.923867)
(-0.336659 0.174239 0.925366)
(-0.328009 0.123964 0.936506)
(-0.278365 -0.119994 0.95295)
(-0.164856 -0.245621 0.955245)
(0.277466 -0.187131 0.942335)
(0.281454 -0.145728 0.948444)
(0.321711 -0.127591 0.938202)
(0.325208 -0.0870417 0.941628)
(0.303195 -0.0505818 0.951585)
(0.129693 0.331559 0.934478)
(0.117379 -0.279104 0.95306)
(-0.335199 0.0150678 0.942027)
(-0.337897 0.0448716 0.940113)
(0.0136589 -0.313125 0.949614)
(-0.00331277 0.362102 0.932133)
(-0.110699 0.332616 0.936543)
(0.252996 0.182165 0.950162)
(0.230168 0.243847 0.942105)
(0.0325287 0.348538 0.93673)
(-0.0922704 -0.324903 0.941236)
(-0.22022 0.247069 0.943642)
(0.0495207 -0.313136 0.948416)
(0.201038 -0.279726 0.938796)
(0.261126 -0.22522 0.938664)
(0.0858686 -0.302743 0.949196)
(0.261043 0.120902 0.957726)
(0.399921 0.0199801 0.916332)
(-0.217021 0.357706 0.908267)
(0.384769 -0.0489733 0.921713)
(-0.315721 -0.0389858 0.948051)
(-0.149652 -0.284345 0.94697)
(-0.273594 -0.149274 0.950191)
(0.0889468 0.31671 0.944343)
(0.172214 0.33502 0.926339)
(0.199248 0.258293 0.945296)
(0.174321 0.276864 0.944965)
(0.250218 0.217815 0.94337)
(0.274946 0.158046 0.948381)
(0.166272 -0.297892 0.940007)
(0.27835 0.0963014 0.95564)
(0.299155 0.0450882 0.953139)
(-0.250521 0.235633 0.938997)
(-0.205076 0.185555 0.960996)
(0.0622439 0.333546 0.940677)
(0.288516 0.0689363 0.95499)
(-0.0207947 -0.32412 0.945787)
(-0.118386 -0.291029 0.949361)
(-0.220031 -0.275099 0.935899)
(-0.244423 -0.251571 0.936466)
(-0.276708 -0.233294 0.932205)
(-0.30944 -0.105136 0.945089)
(-0.338451 -0.0809709 0.937494)
(-0.308828 0.141444 0.940542)
(-0.287667 0.203027 0.935964)
(-0.333121 -0.0126433 0.942799)
(-0.333652 0.0733597 0.939838)
(-0.0484446 -0.275555 0.960064)
(-0.34496 0.101881 0.933072)
(-0.258414 -0.172722 0.950468)
(0.216091 -0.233507 0.94804)
(-0.0330107 0.328374 0.943971)
(-0.0641674 0.35361 0.933189)
(-0.0812782 0.319655 0.944042)
(-0.134736 0.324517 0.936234)
(-0.163564 0.251243 0.954004)
(-0.72834 0.575734 -0.371552)
(0.619198 -0.773444 0.135564)
)

// normal volume types

416
(
0
0
0
0
0
0
0
0
0
0
0
0
0
0
0
0
0
0
0
0
0
0
0
0
0
0
0
0
0
0
0
0
0
0
0
0
0
0
0
0
0
0
0
0
0
0
0
0
0
0
0
0
0
0
0
0
0
0
0
0
0
0
0
0
0
0
0
0
0
0
0
0
0
0
0
0
0
0
0
0
0
0
0
0
0
0
0
0
0
0
0
0
0
0
0
0
0
0
0
0
0
0
0
0
0
0
0
0
0
0
0
0
0
0
0
0
0
0
0
0
0
0
0
0
0
0
0
0
0
0
0
0
0
0
0
0
0
0
0
0
0
0
0
0
0
0
0
0
0
0
0
0
0
0
0
0
0
0
0
0
0
0
0
0
0
0
0
0
0
0
0
0
0
0
0
0
0
0
0
0
0
0
0
0
0
0
0
0
0
0
0
0
0
0
0
0
0
0
0
0
0
0
0
0
0
0
0
0
0
0
0
0
0
0
0
0
0
0
0
0
0
0
0
0
0
0
0
0
0
0
0
0
0
0
0
0
0
0
0
0
0
0
0
0
0
0
0
0
0
0
0
0
0
0
0
0
0
0
0
0
0
0
0
0
0
0
0
0
0
0
0
0
0
0
0
0
0
0
0
0
0
0
0
0
0
0
0
0
0
0
0
0
0
0
0
0
0
0
0
0
0
0
0
0
0
0
0
0
0
0
0
0
0
0
0
0
0
0
0
0
0
0
0
0
0
0
0
0
0
0
0
0
0
0
0
0
0
0
0
0
0
0
0
0
0
0
0
0
0
0
0
0
0
0
0
0
0
0
0
0
0
0
0
0
0
0
0
0
0
0
0
0
0
0
0
0
0
0
0
0
0
0
0
0
0
0
0
0
0
0
0
0
0
0
0
0
0
0
0
0
0
0
0
0
0
0
0
0
0
0
0
0
0
0
0
0
)

// normalDirections

415
(
2(1 -1)
1(1)
1(1)
1(1)
1(1)
1(1)
1(1)