/*--------------------------------*- C++ -*----------------------------------*\
  =========                 |
  \\      /  F ield         | OpenFOAM: The Open Source CFD Toolbox
   \\    /   O peration     | Website:  https://openfoam.org
    \\  /    A nd           | Version:  13
     \\/     M anipulation  |
\*---------------------------------------------------------------------------*/
FoamFile
{
    format      ascii;
    class       polyBoundaryMesh;
    location    "constant/polyMesh";
    object      boundary;
}
// * * * * * * * * * * * * * * * * * * * * * * * * * * * * * * * * * * * * * //

7
(
    domain
    {
        type            patch;
        nFaces          12120;
        startFace       355045;
    }
    wall_aorta
    {
        type            wall;
        inGroups        List<word> 1(wall);
        nFaces          5988;
        startFace       367165;
    }
    inlet
    {
        type            wall;
        inGroups        List<word> 1(wall);
        nFaces          113;
        startFace       373153;
    }
    outlet1
    {
        type            wall;
        inGroups        List<word> 1(wall);
        nFaces          114;
        startFace       373266;
    }
    outlet2
    {
        type            wall;
        inGroups        List<word> 1(wall);
        nFaces          54;
        startFace       373380;
    }
    outlet3
    {
        type            wall;
        inGroups        List<word> 1(wall);
        nFaces          100;
        startFace       373434;
    }
    outlet4
    {
        type            wall;
        inGroups        List<word> 1(wall);
        nFaces          59;
        startFace       373534;
    }
)

// ************************************************************************* //
