FoamFile
{
    version     2.0;
    format     ascii;
    class     dictionary;
    object     transportProperties;
}

nu 3.77358490566038e-06;
rho 1060;
