FoamFile
{
    version     2.0;
    format     ascii;
    class     dictionary;
    object     fvModels;
}

radiation
{
    type radiation;
    libs ['libradiationModels.so'];
    turbulence yes;
}
