/*--------------------------------*- C++ -*----------------------------------*\
  =========                 |
  \\      /  F ield         | OpenFOAM: The Open Source CFD Toolbox
   \\    /   O peration     | Website:  https://openfoam.org
    \\  /    A nd           | Version:  13
     \\/     M anipulation  |
\*---------------------------------------------------------------------------*/
FoamFile
{
    format      ascii;
    class       featureEdgeMesh;
    location    "constant/triSurface";
    object      inlet.eMesh;
}
// * * * * * * * * * * * * * * * * * * * * * * * * * * * * * * * * * * * * * //


// points:

118
(
(-19.5228 -18.6282 -15.8915)
(-19.387 -18.4079 -15.8141)
(-13.2737 -17.0552 -11.2311)
(-13.0907 -17.2263 -11.0668)
(-17.9413 -16.9678 -14.8962)
(-17.79 -16.802 -14.7874)
(-16.8096 -16.3107 -14.0778)
(-16.5986 -16.2498 -13.9213)
(-19.7953 -19.1418 -16.0374)
(-19.6641 -18.8808 -15.9689)
(-14.9719 -16.1965 -12.6625)
(-14.7429 -16.2515 -12.4773)
(-12.0651 -18.7496 -10.0734)
(-11.9608 -19.0063 -9.95933)
(-11.7173 -19.8205 -9.66536)
(-11.6598 -20.1032 -9.58435)
(-12.3075 -18.2621 -10.3245)
(-12.1809 -18.501 -10.1954)
(-13.6628 -16.7531 -11.5727)
(-13.4648 -16.8971 -11.4001)
(-15.4384 -16.1335 -13.0336)
(-15.2042 -16.157 -12.8483)
(-18.9473 -17.8106 -15.5492)
(-18.7826 -17.6267 -15.446)
(-11.6146 -20.3909 -9.51225)
(-11.5821 -20.6821 -9.44959)
(-20.3464 -20.8332 -16.2486)
(-20.2843 -20.5398 -16.238)
(-11.5624 -20.9767 -9.3964)
(-11.5555 -21.2731 -9.35298)
(-11.5614 -21.5713 -9.31932)
(-11.5796 -21.8695 -9.29521)
(-11.6104 -22.1677 -9.28083)
(-11.6533 -22.4643 -9.27612)
(-11.7086 -22.7591 -9.28128)
(-11.7761 -23.0508 -9.29635)
(-12.051 -23.9003 -9.40106)
(-12.1654 -24.172 -9.45518)
(-12.2908 -24.4371 -9.51868)
(-12.4265 -24.6944 -9.59116)
(-12.9306 -25.4638 -9.88447)
(-13.1278 -25.7053 -10.0069)
(-13.3413 -25.94 -10.1427)
(-13.5824 -26.1825 -10.2969)
(-13.8114 -26.4155 -10.4364)
(-20.4722 -22.3199 -16.1554)
(-20.4718 -22.0227 -16.1932)
(-20.434 -22.9085 -16.0499)
(-20.46 -22.6159 -16.1078)
(-20.3449 -23.4836 -15.9066)
(-20.3953 -23.1983 -15.9825)
(-20.4589 -21.7242 -16.2216)
(-20.4338 -21.4262 -16.2404)
(-20.3962 -21.1286 -16.2494)
(-20.2078 -24.0393 -15.7286)
(-20.2824 -23.7646 -15.8219)
(-20.0235 -24.569 -15.5171)
(-20.1214 -24.3081 -15.6267)
(-19.7936 -25.0665 -15.2742)
(-19.9142 -24.8225 -15.3994)
(-19.2074 -25.942 -14.7055)
(-19.3684 -25.7397 -14.8568)
(-18.8588 -26.3112 -14.3868)
(-19.0372 -26.133 -14.5486)
(-18.0691 -26.8896 -13.698)
(-18.2766 -26.7665 -13.8753)
(-17.6367 -27.092 -13.3356)
(-17.8553 -26.9983 -13.5176)
(-17.1862 -27.2346 -12.9667)
(-17.4132 -27.171 -13.1515)
(-16.7226 -27.3151 -12.5956)
(-16.9555 -27.2828 -12.7809)
(-16.2507 -27.3316 -12.2263)
(-16.4871 -27.3316 -12.4103)
(-15.7498 -27.2795 -11.8432)
(-16.0131 -27.3156 -12.0435)
(-15.2242 -27.1496 -11.4509)
(-15.4867 -27.2253 -11.6454)
(-14.6771 -26.9351 -11.049)
(-14.9565 -27.0546 -11.254)
(-19.5202 -25.5257 -15.0025)
(-19.662 -25.3015 -15.1416)
(-14.0678 -26.6453 -10.5958)
(-14.3786 -26.8048 -10.8249)
(-20.1236 -19.9646 -16.1869)
(-20.0255 -19.6843 -16.1467)
(-18.6203 -17.463 -15.3432)
(-18.4538 -17.3163 -15.2374)
(-11.7867 -19.5426 -9.75505)
(-11.8679 -19.2712 -9.85307)
(-12.445 -18.0327 -10.461)
(-12.7496 -17.6064 -10.7526)
(-12.5924 -17.8142 -10.6037)
(-12.9157 -17.4106 -10.907)
(-13.8681 -16.6233 -11.749)
(-14.2958 -16.4076 -12.1095)
(-14.079 -16.5082 -11.9279)
(-14.5171 -16.3221 -12.2926)
(-15.6748 -16.1264 -13.2185)
(-16.1494 -16.1599 -13.5833)
(-15.9118 -16.1351 -13.4017)
(-16.3862 -16.2 -13.7624)
(-17.0017 -16.3788 -14.2187)
(-17.4112 -16.5632 -14.5151)
(-17.2093 -16.4637 -14.3696)
(-18.2689 -17.216 -15.1182)
(-18.086 -17.1206 -14.997)
(-19.105 -18.0078 -15.6463)
(-19.244 -18.1951 -15.7303)
(-12.7457 -25.2095 -9.77332)
(-19.9158 -19.4096 -16.0967)
(-20.2102 -20.2503 -16.2176)
(-11.8559 -23.3389 -9.3214)
(-11.9476 -23.6222 -9.35633)
(-12.5723 -24.9436 -9.67262)
(-18.478 -26.6285 -14.0498)
(-18.672 -26.4769 -14.2202)
(-17.6082 -16.6751 -14.6566)
)


// edges:

118
(
(0 1)
(2 3)
(4 5)
(6 7)
(8 9)
(10 11)
(12 13)
(14 15)
(16 17)
(18 19)
(20 21)
(22 23)
(24 25)
(26 27)
(28 29)
(30 31)
(32 33)
(34 35)
(36 37)
(38 39)
(40 41)
(42 43)
(43 44)
(45 46)
(47 48)
(49 50)
(51 52)
(53 26)
(54 55)
(56 57)
(58 59)
(60 61)
(62 63)
(64 65)
(66 67)
(68 69)
(70 71)
(72 73)
(74 75)
(76 77)
(78 79)
(80 81)
(44 82)
(82 83)
(84 85)
(86 87)
(88 14)
(15 24)
(13 89)
(17 12)
(90 16)
(91 92)
(3 93)
(19 2)
(94 18)
(95 96)
(11 97)
(21 10)
(98 20)
(99 100)
(7 101)
(102 6)
(103 104)
(105 106)
(23 86)
(107 22)
(1 108)
(109 40)
(9 0)
(85 110)
(25 28)
(27 111)
(29 30)
(31 32)
(33 34)
(35 112)
(113 36)
(37 38)
(39 114)
(115 116)
(41 42)
(48 45)
(50 47)
(55 49)
(46 51)
(52 53)
(57 54)
(59 56)
(81 58)
(61 80)
(63 60)
(116 62)
(65 115)
(67 64)
(69 66)
(71 68)
(73 70)
(75 72)
(77 74)
(79 76)
(83 78)
(114 109)
(111 84)
(108 107)
(87 105)
(117 103)
(104 102)
(101 99)
(100 98)
(97 95)
(96 94)
(93 91)
(92 90)
(112 113)
(89 88)
(5 117)
(106 4)
(110 8)
)

// * * * * * * * * * * * * * * * * * * * * * * * * * * * * * * * * * * * * * //


// ************************************************************************* //
