/*--------------------------------*- C++ -*----------------------------------*\
  =========                 |
  \\      /  F ield         | OpenFOAM: The Open Source CFD Toolbox
   \\    /   O peration     | Website:  https://openfoam.org
    \\  /    A nd           | Version:  13
     \\/     M anipulation  |
\*---------------------------------------------------------------------------*/
FoamFile
{
    format      ascii;
    class       featureEdgeMesh;
    location    "constant/triSurface";
    object      outlet3.eMesh;
}
// * * * * * * * * * * * * * * * * * * * * * * * * * * * * * * * * * * * * * //


// points:

65
(
(-0.762501 -3.38518 34.7644)
(-0.604631 -3.52449 34.7693)
(3.32217 -0.973419 34.7357)
(3.25147 -0.779877 34.7361)
(3.17252 -0.61058 34.736)
(2.96998 -0.309204 34.7392)
(2.83648 -0.193176 34.7485)
(2.63419 0.0788269 34.7364)
(2.49116 0.197037 34.7363)
(-0.440223 -3.63693 34.7755)
(1.0816 0.692215 34.7447)
(0.825333 0.681183 34.7466)
(1.31213 0.673325 34.743)
(0.570895 0.645279 34.7487)
(0.321571 0.583176 34.7508)
(1.51993 0.639252 34.7416)
(1.74422 0.58168 34.7402)
(1.96195 0.503723 34.7389)
(2.15845 0.410355 34.7379)
(2.33136 0.308685 34.737)
(2.74718 -0.0572968 34.7421)
(3.08405 -0.456894 34.7356)
(3.37915 -1.17209 34.7356)
(3.41809 -1.37631 34.7362)
(3.43886 -1.58363 34.737)
(3.4417 -1.79417 34.7379)
(3.42295 -2.02458 34.7392)
(3.37803 -2.27739 34.7407)
(3.30563 -2.52386 34.7424)
(3.20791 -2.76134 34.7442)
(3.08498 -2.98691 34.7462)
(2.93931 -3.19839 34.7483)
(2.77134 -3.39273 34.7505)
(2.58423 -3.56871 34.7527)
(2.37945 -3.72368 34.755)
(2.15894 -3.85539 34.7572)
(1.92575 -3.9631 34.7595)
(1.68288 -4.04688 34.7617)
(0.0799541 0.496048 34.753)
(-0.14993 0.381577 34.7552)
(-0.366996 0.24411 34.7575)
(-0.568613 0.0848694 34.7597)
(-0.751678 -0.0953064 34.7618)
(-0.914678 -0.293884 34.764)
(1.4326 -4.10345 34.7638)
(-1.05535 -0.50885 34.7659)
(-1.17289 -0.737244 34.7678)
(-1.26467 -0.977188 34.7696)
(-1.3316 -1.22527 34.7712)
(-1.37092 -1.47911 34.7726)
(-1.38348 -1.73569 34.7738)
(-1.36789 -1.99216 34.7748)
(-1.3264 -2.24565 34.7756)
(-1.25736 -2.49316 34.7762)
(-1.17321 -2.70866 34.7765)
(-1.07834 -2.89713 34.7765)
(-0.976605 -3.06488 34.7758)
(-0.870301 -3.22591 34.7718)
(-0.266568 -3.75858 34.775)
(-0.0655706 -3.873 34.774)
(0.169252 -3.97717 34.7728)
(0.413363 -4.05714 34.7713)
(0.664569 -4.10944 34.7696)
(1.17724 -4.13129 34.7659)
(0.920385 -4.13319 34.7678)
)


// edges:

65
(
(0 1)
(2 3)
(3 4)
(5 6)
(7 8)
(1 9)
(10 11)
(12 10)
(11 13)
(13 14)
(15 12)
(16 15)
(17 16)
(18 17)
(19 18)
(8 19)
(20 7)
(6 20)
(21 5)
(4 21)
(22 2)
(23 22)
(24 23)
(25 24)
(26 25)
(27 26)
(28 27)
(29 28)
(30 29)
(31 30)
(32 31)
(33 32)
(34 33)
(35 34)
(36 35)
(37 36)
(14 38)
(38 39)
(39 40)
(40 41)
(41 42)
(42 43)
(44 37)
(43 45)
(45 46)
(46 47)
(47 48)
(48 49)
(49 50)
(50 51)
(51 52)
(52 53)
(53 54)
(54 55)
(55 56)
(57 0)
(56 57)
(9 58)
(58 59)
(59 60)
(60 61)
(61 62)
(63 44)
(64 63)
(62 64)
)

// * * * * * * * * * * * * * * * * * * * * * * * * * * * * * * * * * * * * * //


// ************************************************************************* //
