/*--------------------------------*- C++ -*----------------------------------*\
  =========                 |
  \\      /  F ield         | OpenFOAM: The Open Source CFD Toolbox
   \\    /   O peration     | Website:  https://openfoam.org
    \\  /    A nd           | Version:  13
     \\/     M anipulation  |
\*---------------------------------------------------------------------------*/
FoamFile
{
    format      ascii;
    class       featureEdgeMesh;
    location    "constant/triSurface";
    object      outlet2.eMesh;
}
// * * * * * * * * * * * * * * * * * * * * * * * * * * * * * * * * * * * * * //


// points:

62
(
(-4.93423 -12.5889 34.5606)
(-4.74257 -12.6204 34.5497)
(-4.54673 -12.5959 34.5626)
(-2.85803 -10.5571 34.7747)
(-2.87708 -10.4093 34.7895)
(-2.92123 -10.2799 34.808)
(-2.98334 -10.1467 34.8285)
(-3.01017 -10.0076 34.829)
(-3.0706 -9.86534 34.8373)
(-6.56677 -10.6195 34.7397)
(-6.56624 -10.817 34.721)
(-6.54615 -11.0138 34.7025)
(-6.50677 -11.2074 34.6845)
(-6.44527 -11.395 34.6673)
(-6.36427 -11.575 34.6509)
(-6.26614 -11.7463 34.6353)
(-6.14979 -11.9059 34.6209)
(-6.01594 -12.0517 34.608)
(-5.8688 -12.1842 34.5965)
(-5.69028 -12.3124 34.5857)
(-5.49604 -12.4163 34.5773)
(-5.31158 -12.492 34.5715)
(-5.11569 -12.5497 34.5671)
(-4.351 -12.5633 34.5714)
(-4.15388 -12.5135 34.578)
(-3.9667 -12.4467 34.5857)
(-6.54275 -10.4235 34.7586)
(-6.49909 -10.2309 34.7772)
(-6.43686 -10.0435 34.7954)
(-6.35317 -9.86472 34.813)
(-6.25058 -9.69579 34.8297)
(-6.13187 -9.53767 34.8456)
(-3.77034 -12.348 34.5965)
(-5.99655 -9.39362 34.8602)
(-5.84531 -9.26599 34.8735)
(-3.60531 -12.2388 34.6081)
(-5.68216 -9.15382 34.8852)
(-5.13382 -8.93156 34.9104)
(-5.32445 -8.98595 34.9039)
(-4.93884 -8.89644 34.9152)
(-4.74101 -8.88422 34.9178)
(-4.54289 -8.89291 34.9185)
(-4.34664 -8.92084 34.9173)
(-4.15474 -8.97009 34.9141)
(-3.9695 -9.04065 34.9088)
(-3.45144 -12.1144 34.621)
(-3.3124 -11.974 34.6353)
(-3.19028 -11.8187 34.6509)
(-3.09378 -11.6693 34.6657)
(-3.01156 -11.5117 34.6813)
(-2.94659 -11.3463 34.6974)
(-2.90098 -11.1881 34.7127)
(-2.86846 -11.0305 34.7279)
(-2.85016 -10.8718 34.7432)
(-2.84789 -10.7129 34.7588)
(-3.15288 -9.72655 34.8497)
(-3.25012 -9.59158 34.8618)
(-3.36839 -9.45811 34.8736)
(-3.48596 -9.34627 34.8834)
(-3.7918 -9.1284 34.9017)
(-3.62457 -9.23412 34.893)
(-5.50885 -9.05856 34.8957)
)


// edges:

62
(
(0 1)
(1 2)
(3 4)
(5 6)
(7 8)
(4 5)
(9 10)
(10 11)
(11 12)
(12 13)
(13 14)
(14 15)
(15 16)
(16 17)
(17 18)
(18 19)
(19 20)
(20 21)
(21 22)
(22 0)
(2 23)
(23 24)
(24 25)
(26 9)
(27 26)
(28 27)
(29 28)
(30 29)
(31 30)
(25 32)
(33 31)
(34 33)
(32 35)
(36 34)
(37 38)
(39 37)
(40 39)
(41 40)
(42 41)
(43 42)
(44 43)
(35 45)
(45 46)
(46 47)
(47 48)
(48 49)
(49 50)
(50 51)
(51 52)
(52 53)
(53 54)
(54 3)
(6 7)
(8 55)
(55 56)
(56 57)
(57 58)
(59 44)
(58 60)
(60 59)
(38 61)
(61 36)
)

// * * * * * * * * * * * * * * * * * * * * * * * * * * * * * * * * * * * * * //


// ************************************************************************* //
