/*--------------------------------*- C++ -*----------------------------------*\
  =========                 |
  \\      /  F ield         | OpenFOAM: The Open Source CFD Toolbox
   \\    /   O peration     | Website:  https://openfoam.org
    \\  /    A nd           | Version:  13
     \\/     M anipulation  |
\*---------------------------------------------------------------------------*/
FoamFile
{
    format      ascii;
    class       featureEdgeMesh;
    location    "constant/triSurface";
    object      outlet4.eMesh;
}
// * * * * * * * * * * * * * * * * * * * * * * * * * * * * * * * * * * * * * //


// points:

100
(
(2.28962 -4.05118 -73.022)
(2.06987 -4.08867 -73.0084)
(1.86584 -4.11147 -72.9986)
(2.72288 -3.93631 -73.0583)
(2.51885 -3.99805 -73.0394)
(3.09158 -3.78992 -73.1005)
(2.91906 -3.86441 -73.0794)
(3.4229 -3.61478 -73.1485)
(3.25952 -3.70668 -73.1235)
(3.76642 -3.38072 -73.2105)
(3.59784 -3.50279 -73.1784)
(4.08478 -3.10307 -73.2819)
(3.93085 -3.24503 -73.2456)
(4.2367 -2.94438 -73.3221)
(1.67476 -4.12259 -72.9918)
(1.46445 -4.12216 -72.9872)
(1.23178 -4.10704 -72.9855)
(0.999949 -4.07721 -72.9872)
(0.768312 -4.03217 -72.9926)
(0.532561 -3.97098 -73.0015)
(0.287567 -3.88857 -73.015)
(0.0359251 -3.79028 -73.0287)
(-0.674303 -3.36087 -73.1056)
(-0.87534 -3.17371 -73.1526)
(-1.05559 -2.99304 -73.1926)
(-1.21151 -2.81763 -73.2301)
(-1.35118 -2.63408 -73.2697)
(-1.48019 -2.43878 -73.3121)
(-1.68996 -2.04471 -73.3989)
(-1.7769 -1.83681 -73.4451)
(-1.84343 -1.63939 -73.4895)
(-1.90268 -1.41771 -73.5396)
(-1.97672 -0.961975 -73.6437)
(-1.99086 -0.707306 -73.7025)
(-1.96786 -0.251175 -73.8089)
(-1.93384 -0.0239868 -73.8623)
(-1.88229 0.2043 -73.9165)
(-1.80727 0.449249 -73.9751)
(4.50197 -2.60809 -73.406)
(4.37753 -2.77753 -73.3638)
(-1.50349 1.09926 -74.1326)
(-1.3721 1.30328 -74.1828)
(-1.22983 1.48926 -74.2292)
(-1.07717 1.66325 -74.273)
(4.73814 -2.20955 -73.5039)
(4.62685 -2.41182 -73.4545)
(4.969 -1.62836 -73.6438)
(4.90503 -1.82594 -73.5965)
(5.05592 -1.2496 -73.7336)
(5.02028 -1.43031 -73.6909)
(5.09992 -0.842651 -73.829)
(5.08373 -1.04713 -73.7812)
(5.09388 -0.425369 -73.9257)
(5.10282 -0.632217 -73.8779)
(5.07042 -0.208954 -73.9754)
(4.90462 0.460571 -74.1272)
(4.97588 0.240479 -74.0777)
(5.03227 0.0113983 -74.0257)
(4.81789 0.678741 -74.1758)
(4.71222 0.897919 -74.2243)
(4.5775 1.13261 -74.2759)
(4.28765 1.52892 -74.3619)
(4.43496 1.34349 -74.3218)
(-0.75153 1.97073 -74.3516)
(-0.572575 2.11066 -74.388)
(-0.398161 2.22888 -74.4194)
(-0.219769 2.33569 -74.4482)
(-0.0537047 2.42293 -74.4721)
(0.13594 2.50922 -74.4964)
(0.33107 2.5853 -74.5183)
(0.536095 2.65031 -74.5381)
(3.97212 1.85184 -74.4331)
(4.13085 1.70024 -74.399)
(3.81878 1.98993 -74.4621)
(3.48917 2.22331 -74.508)
(3.66039 2.10973 -74.4864)
(2.70871 2.5874 -74.5783)
(2.84327 2.50014 -74.575)
(2.38391 2.69244 -74.5893)
(2.55445 2.6467 -74.5836)
(0.959831 2.74594 -74.5696)
(1.16291 2.77409 -74.5807)
(2.00056 2.76274 -74.5966)
(2.19644 2.73271 -74.594)
(1.37518 2.79039 -74.5892)
(1.58622 2.79396 -74.5948)
(1.7875 2.78456 -74.597)
(3.32541 2.31631 -74.5276)
(0.741135 2.70341 -74.5548)
(2.98821 2.41141 -74.5676)
(3.15756 2.36948 -74.5487)
(-0.916411 1.82497 -74.3141)
(4.83074 -2.01205 -73.5517)
(-1.62106 0.887054 -74.0808)
(-1.72376 0.667679 -74.0275)
(-1.98644 -0.467804 -73.7582)
(-1.94583 -1.20183 -73.5887)
(-1.59338 -2.24127 -73.3554)
(-0.465637 -3.54593 -73.0547)
(-0.209542 -3.68785 -73.0361)
)


// edges:

100
(
(0 1)
(1 2)
(3 4)
(5 6)
(7 8)
(9 10)
(11 12)
(13 11)
(14 15)
(16 17)
(18 19)
(20 21)
(22 23)
(24 25)
(26 27)
(28 29)
(30 31)
(32 33)
(34 35)
(36 37)
(38 39)
(40 41)
(42 43)
(44 45)
(46 47)
(48 49)
(50 51)
(52 53)
(54 52)
(55 56)
(56 57)
(58 55)
(59 58)
(60 59)
(61 62)
(63 64)
(65 66)
(67 68)
(69 70)
(71 72)
(73 71)
(74 75)
(76 77)
(78 79)
(80 81)
(82 83)
(84 85)
(86 82)
(87 74)
(85 86)
(81 84)
(88 80)
(83 78)
(89 90)
(75 73)
(70 88)
(68 69)
(66 67)
(64 65)
(91 63)
(43 91)
(72 61)
(62 60)
(57 54)
(53 50)
(51 48)
(49 46)
(47 92)
(92 44)
(41 42)
(93 40)
(94 93)
(37 94)
(45 38)
(35 36)
(95 34)
(33 95)
(96 32)
(31 96)
(29 30)
(97 28)
(27 97)
(25 26)
(23 24)
(98 22)
(21 99)
(19 20)
(17 18)
(15 16)
(2 14)
(39 13)
(12 9)
(10 7)
(8 5)
(6 3)
(4 0)
(99 98)
(77 89)
(90 87)
(79 76)
)

// * * * * * * * * * * * * * * * * * * * * * * * * * * * * * * * * * * * * * //


// ************************************************************************* //
