/*--------------------------------*- C++ -*----------------------------------*\
  =========                 |
  \\      /  F ield         | OpenFOAM: The Open Source CFD Toolbox
   \\    /   O peration     | Website:  https://openfoam.org
    \\  /    A nd           | Version:  13
     \\/     M anipulation  |
\*---------------------------------------------------------------------------*/
FoamFile
{
    format      ascii;
    class       featureEdgeMesh;
    location    "constant/triSurface";
    object      outlet1.eMesh;
}
// * * * * * * * * * * * * * * * * * * * * * * * * * * * * * * * * * * * * * //


// points:

69
(
(-15.1689 -14.9858 34.8511)
(-14.9915 -14.7165 34.8399)
(-14.8432 -14.4302 34.828)
(-15.3728 -15.2356 34.8616)
(-15.8551 -15.6619 34.8795)
(-15.6022 -15.462 34.8711)
(-16.4175 -15.9761 34.8928)
(-16.1281 -15.8337 34.8867)
(-17.0332 -16.1653 34.901)
(-16.7203 -16.0872 34.8976)
(-17.6429 -16.2205 34.9036)
(-17.3527 -16.2097 34.903)
(-18.2197 -16.1589 34.9014)
(-17.9328 -16.2034 34.9031)
(-18.7697 -15.9904 34.8947)
(-18.5011 -16.0871 34.8986)
(-19.0105 -15.8786 34.8902)
(-19.2511 -15.739 34.8846)
(-19.6669 -15.4187 34.8716)
(-19.4673 -15.5871 34.8784)
(-20.0332 -15.0118 34.855)
(-19.8677 -15.2139 34.8632)
(-20.1813 -14.7965 34.8461)
(-20.3061 -14.5782 34.8372)
(-20.5814 -13.7896 34.8047)
(-20.5117 -14.0713 34.8163)
(-20.6403 -13.2678 34.7831)
(-20.6218 -13.5286 34.7939)
(-14.7333 -14.1477 34.8161)
(-20.6357 -13.0066 34.7724)
(-14.6365 -13.869 34.8001)
(-20.6106 -12.7639 34.7623)
(-20.5699 -12.5414 34.7531)
(-20.5168 -12.3364 34.7445)
(-20.3831 -11.9726 34.7295)
(-20.4557 -12.1521 34.7369)
(-19.8702 -11.1831 34.6992)
(-19.9698 -11.366 34.7133)
(-20.0841 -11.529 34.7204)
(-19.4031 -10.7539 34.6784)
(-19.5721 -10.8883 34.6848)
(-19.7272 -11.0246 34.6911)
(-19.216 -10.6261 34.6728)
(-19.0122 -10.5094 34.6679)
(-18.5779 -10.3251 34.6601)
(-18.7993 -10.4088 34.6636)
(-14.5855 -13.0373 34.7708)
(-14.6162 -12.7346 34.7582)
(-14.6742 -12.4503 34.7464)
(-14.7701 -12.1427 34.7338)
(-14.8981 -11.8469 34.7216)
(-15.0567 -11.5664 34.71)
(-15.2443 -11.3043 34.6993)
(-15.4588 -11.0637 34.6894)
(-15.6976 -10.8471 34.6805)
(-15.9578 -10.6567 34.6727)
(-16.2367 -10.4951 34.6662)
(-16.5317 -10.3649 34.6609)
(-18.0861 -10.2042 34.6549)
(-18.345 -10.2573 34.6572)
(-16.8389 -10.2669 34.657)
(-17.1546 -10.2007 34.6544)
(-17.4755 -10.1674 34.6531)
(-17.7978 -10.171 34.6534)
(-20.2117 -11.6588 34.7189)
(-20.3027 -11.8063 34.723)
(-14.5647 -13.6097 34.7839)
(-14.5671 -13.3299 34.7788)
(-20.4163 -14.3415 34.8274)
)


// edges:

69
(
(0 1)
(1 2)
(3 0)
(4 5)
(6 7)
(8 9)
(10 11)
(12 13)
(14 15)
(16 14)
(17 16)
(18 19)
(20 21)
(22 20)
(23 22)
(24 25)
(26 27)
(2 28)
(29 26)
(28 30)
(31 29)
(32 31)
(33 32)
(34 35)
(36 37)
(37 38)
(39 40)
(40 41)
(42 39)
(43 42)
(44 45)
(46 47)
(48 49)
(50 51)
(52 53)
(54 55)
(56 57)
(58 59)
(60 61)
(62 63)
(38 64)
(64 65)
(30 66)
(61 62)
(63 58)
(57 60)
(55 56)
(53 54)
(51 52)
(49 50)
(47 48)
(67 46)
(66 67)
(59 44)
(45 43)
(41 36)
(65 34)
(35 33)
(27 24)
(25 68)
(68 23)
(21 18)
(19 17)
(15 12)
(13 10)
(11 8)
(9 6)
(7 4)
(5 3)
)

// * * * * * * * * * * * * * * * * * * * * * * * * * * * * * * * * * * * * * //


// ************************************************************************* //
