FoamFile
{
    version     2.0;
    format     ascii;
    class     dictionary;
    object     controlDict;
}

application fluid;
startFrom startTime;
startTime 0;
stopAt endTime;
endTime 5000;
deltaT 1;
writeControl timeStep;
writeInterval 100;
purgeWrite 10;
writeFormat ascii;
writePrecision 6;
writeCompression off;
timeFormat general;
timePrecision 6;
runTimeModifiable true;
