FoamFile
{
    version     2.0;
    format      ascii;
    class       dictionary;
    location    "system";
    object      blockMeshDict;
}

convertToMeters 1;

vertices
(
    (-34.273663711547854 -35.983724975585936 -96.50009765625)
    (14.430329513549804 -35.983724975585936 -96.50009765625)
    (14.430329513549804 18.2533935546875 -96.50009765625)
    (-34.273663711547854 18.2533935546875 -96.50009765625)
    (-34.273663711547854 -35.983724975585936 56.82158508300782)
    (14.430329513549804 -35.983724975585936 56.82158508300782)
    (14.430329513549804 18.2533935546875 56.82158508300782)
    (-34.273663711547854 18.2533935546875 56.82158508300782)
);

blocks
(
    hex (0 1 2 3 4 5 6 7) (28 31 88) simpleGrading (1 1 1)
);

edges ();

boundary
(
    domain
    {
        type patch;
        faces
        (
            (0 1 2 3)
            (4 5 6 7)
            (0 1 5 4)
            (1 2 6 5)
            (2 3 7 6)
            (3 0 4 7)
        );
    }
);

mergePatchPairs ();