FoamFile
{
    version     2.0;
    format     ascii;
    class     dictionary;
    object     controlDict;
}

application foamRun;
startFrom startTime;
startTime 0;
stopAt endTime;
endTime 0.5;
deltaT 1e-05;
writeControl runTime;
writeInterval 0.01;
purgeWrite 10;
writeFormat ascii;
writePrecision 6;
writeCompression off;
timeFormat general;
timePrecision 6;
runTimeModifiable true;
libs 
(
"libmodularWKPressure.so" 
);
